####################################################################### 
# 
# This file contains crystal structure data downloaded from the 
# Cambridge Structural Database (CSD) hosted by the Cambridge 
# Crystallographic Data Centre (CCDC).
# 
# Full information about CCDC data access policies and citation 
# guidelines are available at http://www.ccdc.cam.ac.uk/access/V1 
# 
# Audit and citation data items may have been added by the CCDC. 
# Please retain this information to preserve the provenance of 
# this file and to allow appropriate attribution of the data. 
# 
#######################################################################

data_Resorcinol_epsilon
_audit_block_doi                 10.5517/ccdc.csd.cc209zs3
_database_code_depnum_ccdc_archive 'CCDC 1856645'
loop_
_citation_id
_citation_doi
_citation_year
1 10.1021/jacs.6b01120 2016
loop_
_audit_author_name
_audit_author_address
'Alexander Shtukenberg'
;New York University
United States of America
;
_audit_update_record             
;
2018-07-18 deposited with the CCDC.	2021-04-12 downloaded from the CCDC.
;

_chemical_name_systematic        
; Resorcinol
;
_chemical_name_common            Resorcinol
_chemical_formula_moiety         C6
_chemical_formula_iupac          Benzene-1,3-diol
_chemical_formula_sum            'C6 H6 O2'
_chemical_formula_weight         110.1
_chemical_melting_point          371


loop_
_atom_type_symbol
_atom_type_scat_Cromer_Mann_a1
_atom_type_scat_Cromer_Mann_b1
_atom_type_scat_Cromer_Mann_a2
_atom_type_scat_Cromer_Mann_b2
_atom_type_scat_Cromer_Mann_a3
_atom_type_scat_Cromer_Mann_b3
_atom_type_scat_Cromer_Mann_a4
_atom_type_scat_Cromer_Mann_b4
_atom_type_scat_Cromer_Mann_c
_atom_type_scat_dispersion_real
_atom_type_scat_dispersion_imag
_atom_type_scat_source
c 2.31000 20.84390 1.02000 10.20750 1.58860 0.56870 0.86500 51.65120 0.21560
0.00000 0.00100
International_Tables_for_Crystallography_Vol.C(1991)_Tables_6.1.1.4_and_6.1.1.5
o 3.04850 13.27710 2.28680 5.70110 1.54630 0.32390 0.86700 32.90890 0.25080
0.00300 0.00400
International_Tables_for_Crystallography_Vol.C(1991)_Tables_6.1.1.4_and_6.1.1.5
h 0.49300 10.51090 0.32291 26.12570 0.14019 3.14236 0.04081 57.79970 0.00304
0.00000 0.00000
International_Tables_for_Crystallography_Vol.C(1991)_Tables_6.1.1.4_and_6.1.1.5


_symmetry_cell_setting           Orthorhombic
_symmetry_space_group_name_H-M   'P 21 21 21'
_symmetry_space_group_name_Hall  'P 2ac 2ab'

loop_
_symmetry_equiv_pos_as_xyz #<--must include 'x,y,z'
x,y,z
x+1/2,-y+1/2,-z
-x,y+1/2,-z+1/2
-x+1/2,-y,z+1/2

_cell_length_a                   17.8998(2)
_cell_length_b                   10.56800(12)
_cell_length_c                   5.72211(6)
_cell_angle_alpha                90.00000
_cell_angle_beta                 90.00000
_cell_angle_gamma                90.00000
_cell_volume                     1082.43(2)
_cell_formula_units_Z            8
_cell_measurement_temperature    298


# The next three fields give the specimen dimensions in mm.  The equatorial
# plane contains the incident and diffracted beam.

_pd_spec_size_axial              1 # perpendicular to 
# equatorial plane
_pd_spec_size_equat              1 # parallel to 
# scattering vector
# in transmission
_pd_spec_mounting                
; glass calippary
;
_pd_spec_mount_mode              transmission
_pd_spec_shape                   cylinder
_pd_char_colour                  white

_pd_instr_location               
; ESRF, ID22, Grenoble
;


_diffrn_ambient_temperature      298
_diffrn_source                   synchrotron
_diffrn_radiation_type           X-ray
_diffrn_radiation_wavelength     0.410660


_pd_proc_ls_prof_R_factor        5.4570
_pd_proc_ls_prof_wR_factor       7.7410
_pd_proc_ls_prof_wR_expected     8.4560

#  The following profile R-factors are CORRECTED for background
#  The sum is extended to all non-excluded points.
#  These items are not in the current CIF standard, but are defined above

_pd_proc_ls_prof_cR_factor       25.8653
_pd_proc_ls_prof_cwR_factor      21.2720
_pd_proc_ls_prof_cwR_expected    23.2370

#  The following items are not in the CIF standard, but are defined above

_pd_proc_ls_prof_chi2            0.8380
_pd_proc_ls_prof_echi2           0.9348

#  Items related to LS refinement

_refine_ls_R_I_factor            8.5430
_refine_ls_number_reflns         332
_refine_ls_number_parameters     25
_refine_ls_number_restraints     0

_computing_structure_solution    USPEX
_computing_structure_refinement  FULLPROF


loop_
_atom_site_label
_atom_site_fract_x
_atom_site_fract_y
_atom_site_fract_z
_atom_site_U_iso_or_equiv
_atom_site_occupancy
_atom_site_adp_type # Not in version 2.0.1
_atom_site_type_symbol
Re1 0.98823 1.02316 1.06015 0.00000 1.00000 Uiso C
Re2 0.92803 1.01778 0.90507 0.00000 1.00000 Uiso C
Re3 1.04917 0.94162 1.03664 0.00000 1.00000 Uiso C
Re4 0.92882 0.92843 0.72523 0.00000 1.00000 Uiso C
Re5 1.04889 0.85395 0.85462 0.00000 1.00000 Uiso C
Re6 0.98929 0.84596 0.69838 0.00000 1.00000 Uiso C
Re7 0.98996 1.11030 1.24008 0.00000 1.00000 Uiso O
Re8 0.86822 0.92548 0.57735 0.00000 1.00000 Uiso O
Re9 0.93881 1.14199 1.27295 0.00000 1.00000 Uiso H
Re10 0.88034 1.08055 0.92607 0.00000 1.00000 Uiso H
Re11 1.09544 0.94668 1.15951 0.00000 1.00000 Uiso H
Re12 1.09606 0.78984 0.83539 0.00000 1.00000 Uiso H
Re13 0.98955 0.77636 0.55879 0.00000 1.00000 Uiso H
Re14 0.87369 0.85661 0.45905 0.00000 1.00000 Uiso H
Rs1 0.21749 0.71685 1.12950 0.00000 1.00000 Uiso C
Rs2 0.26939 0.69843 0.95033 0.00000 1.00000 Uiso C
Rs3 0.22651 0.81466 1.29190 0.00000 1.00000 Uiso C
Rs4 0.33166 0.77810 0.93661 0.00000 1.00000 Uiso C
Rs5 0.28891 0.89304 1.27415 0.00000 1.00000 Uiso C
Rs6 0.34202 0.87590 1.09837 0.00000 1.00000 Uiso C
Rs7 0.15634 0.63921 1.15314 0.00000 1.00000 Uiso O
Rs8 0.38187 0.75569 0.76031 0.00000 1.00000 Uiso O
Rs9 0.15727 0.56413 1.04701 0.00000 1.00000 Uiso H
Rs10 0.26263 0.62132 0.82580 0.00000 1.00000 Uiso H
Rs11 0.18589 0.82724 1.43151 0.00000 1.00000 Uiso H
Rs12 0.29639 0.96859 1.40137 0.00000 1.00000 Uiso H
Rs13 0.39121 0.93630 1.08888 0.00000 1.00000 Uiso H
Rs14 0.42646 0.81156 0.77063 0.00000 1.00000 Uiso H

#loop_
#   _geom_bond_atom_site_label_1
#   _geom_bond_atom_site_label_2
#   _geom_bond_distance
#   _geom_bond_site_symmetry_2
#   _geom_bond_publ_flag

#---------------------------needed------------------------------------

#loop_
#   _geom_angle_atom_site_label_1
#   _geom_angle_atom_site_label_2
#   _geom_angle_atom_site_label_3
#   _geom_angle
#   _geom_angle_site_symmetry_1
#   _geom_angle_site_symmetry_3
#   _geom_angle_publ_flag

#---------------------------needed------------------------------------

_pd_meas_2theta_range_min        2.200000
_pd_meas_2theta_range_max        18.000000
_pd_meas_2theta_range_inc        0.002000
_pd_proc_2theta_range_min        2.199340
_pd_proc_2theta_range_max        17.999340
_pd_proc_2theta_range_inc        0.002000

loop_
_pd_proc_point_id
_pd_proc_2theta_corrected
_pd_proc_intensity_total
_pd_calc_intensity_total
_pd_proc_intensity_bkg_calc

1 2.1993 263(16) 251.4289 251.4289
2 2.2013 261(16) 251.3482 251.3482
3 2.2033 271(16) 251.2676 251.2676
4 2.2053 256(16) 251.1870 251.1870
5 2.2073 261(16) 251.1064 251.1064
6 2.2093 265(16) 251.0258 251.0258
7 2.2113 280(17) 250.9453 250.9453
8 2.2133 263(16) 250.8649 250.8649
9 2.2153 246(16) 250.7844 250.7844
10 2.2173 263(16) 250.7041 250.7041
11 2.2193 261(16) 250.6237 250.6237
12 2.2213 256(16) 250.5433 250.5433
13 2.2233 259(16) 250.4630 250.4630
14 2.2253 259(16) 250.3828 250.3828
15 2.2273 250(16) 250.3026 250.3026
16 2.2293 253(16) 250.2224 250.2224
17 2.2313 249(16) 250.1422 250.1422
18 2.2333 254(16) 250.0620 250.0620
19 2.2353 262(16) 249.9820 249.9820
20 2.2373 264(16) 249.9019 249.9019
21 2.2393 265(16) 249.8219 249.8219
22 2.2413 266(16) 249.7419 249.7419
23 2.2433 262(16) 249.6619 249.6619
24 2.2453 280(17) 249.5820 249.5820
25 2.2473 256(16) 249.5021 249.5021
26 2.2493 255(16) 249.4222 249.4222
27 2.2513 251(16) 249.3424 249.3424
28 2.2533 271(16) 249.2626 249.2626
29 2.2553 261(16) 249.1829 249.1829
30 2.2573 249(16) 249.1031 249.1031
31 2.2593 259(16) 249.0235 249.0235
32 2.2613 258(16) 248.9438 248.9438
33 2.2633 260(16) 248.8642 248.8642
34 2.2653 266(16) 248.7846 248.7846
35 2.2673 265(16) 248.7051 248.7051
36 2.2693 254(16) 248.6255 248.6255
37 2.2713 268(16) 248.5461 248.5461
38 2.2733 252(16) 248.4666 248.4666
39 2.2753 256(16) 248.3872 248.3872
40 2.2773 255(16) 248.3078 248.3078
41 2.2793 243(16) 248.2284 248.2284
42 2.2813 241(16) 248.1491 248.1491
43 2.2833 252(16) 248.0698 248.0698
44 2.2853 258(16) 247.9906 247.9906
45 2.2873 254(16) 247.9114 247.9114
46 2.2893 251(16) 247.8322 247.8322
47 2.2913 266(16) 247.7531 247.7531
48 2.2933 258(16) 247.6739 247.6739
49 2.2953 244(16) 247.5948 247.5948
50 2.2973 247(16) 247.5158 247.5158
51 2.2993 274(17) 247.4368 247.4368
52 2.3013 239(15) 247.3578 247.3578
53 2.3033 258(16) 247.2788 247.2788
54 2.3053 249(16) 247.1999 247.1999
55 2.3073 252(16) 247.1210 247.1210
56 2.3093 250(16) 247.0422 247.0422
57 2.3113 258(16) 246.9634 246.9634
58 2.3133 251(16) 246.8846 246.8846
59 2.3153 246(16) 246.8058 246.8058
60 2.3173 257(16) 246.7271 246.7271
61 2.3193 253(16) 246.6484 246.6484
62 2.3213 257(16) 246.5698 246.5698
63 2.3233 253(16) 246.4911 246.4911
64 2.3253 258(16) 246.4126 246.4126
65 2.3273 245(16) 246.3340 246.3340
66 2.3293 251(16) 246.2555 246.2555
67 2.3313 258(16) 246.1770 246.1770
68 2.3333 261(16) 246.0986 246.0986
69 2.3353 245(16) 246.0202 246.0202
70 2.3373 241(16) 245.9418 245.9418
71 2.3393 252(16) 245.8634 245.8634
72 2.3413 257(16) 245.7851 245.7851
73 2.3433 247(16) 245.7068 245.7068
74 2.3453 250(16) 245.6286 245.6286
75 2.3473 245(16) 245.5503 245.5503
76 2.3493 253(16) 245.4722 245.4722
77 2.3513 247(16) 245.3940 245.3940
78 2.3533 255(16) 245.3159 245.3159
79 2.3553 245(16) 245.2378 245.2378
80 2.3573 257(16) 245.1598 245.1598
81 2.3593 253(16) 245.0817 245.0817
82 2.3613 251(16) 245.0037 245.0037
83 2.3633 250(16) 244.9258 244.9258
84 2.3653 263(16) 244.8479 244.8479
85 2.3673 257(16) 244.7699 244.7699
86 2.3693 255(16) 244.6921 244.6921
87 2.3713 255(16) 244.6143 244.6143
88 2.3733 241(16) 244.5365 244.5365
89 2.3753 244(16) 244.4587 244.4587
90 2.3773 245(16) 244.3810 244.3810
91 2.3793 252(16) 244.3033 244.3033
92 2.3813 236(15) 244.2256 244.2256
93 2.3833 251(16) 244.1480 244.1480
94 2.3853 231(15) 244.0704 244.0704
95 2.3873 248(16) 243.9928 243.9928
96 2.3893 259(16) 243.9153 243.9153
97 2.3913 254(16) 243.8378 243.8378
98 2.3933 237(15) 243.7603 243.7603
99 2.3953 253(16) 243.6829 243.6829
100 2.3973 256(16) 243.6055 243.6055
101 2.3993 247(16) 243.5281 243.5281
102 2.4013 249(16) 243.4508 243.4508
103 2.4033 244(16) 243.3735 243.3735
104 2.4053 248(16) 243.2962 243.2962
105 2.4073 244(16) 243.2190 243.2190
106 2.4093 240(16) 243.1418 243.1418
107 2.4113 252(16) 243.0646 243.0646
108 2.4133 246(16) 242.9875 242.9875
109 2.4153 248(16) 242.9104 242.9104
110 2.4173 244(16) 242.8333 242.8333
111 2.4193 247(16) 242.7562 242.7562
112 2.4213 250(16) 242.6792 242.6792
113 2.4233 242(16) 242.6023 242.6023
114 2.4253 251(16) 242.5253 242.5253
115 2.4273 249(16) 242.4484 242.4484
116 2.4293 250(16) 242.3715 242.3715
117 2.4313 248(16) 242.2946 242.2946
118 2.4333 249(16) 242.2178 242.2178
119 2.4353 237(15) 242.1410 242.1410
120 2.4373 245(16) 242.0643 242.0643
121 2.4393 240(15) 241.9876 241.9876
122 2.4413 248(16) 241.9109 241.9109
123 2.4433 244(16) 241.8342 241.8342
124 2.4453 247(16) 241.7576 241.7576
125 2.4473 233(15) 241.6810 241.6810
126 2.4493 245(16) 241.6044 241.6044
127 2.4513 243(16) 241.5279 241.5279
128 2.4533 248(16) 241.4514 241.4514
129 2.4553 249(16) 241.3750 241.3750
130 2.4573 244(16) 241.2985 241.2985
131 2.4593 231(15) 241.2221 241.2221
132 2.4613 237(15) 241.1457 241.1457
133 2.4633 241(16) 241.0694 241.0694
134 2.4653 242(16) 240.9931 240.9931
135 2.4673 243(16) 240.9168 240.9168
136 2.4693 233(15) 240.8406 240.8406
137 2.4713 246(16) 240.7644 240.7644
138 2.4733 257(16) 240.6882 240.6882
139 2.4753 236(15) 240.6120 240.6120
140 2.4773 251(16) 240.5359 240.5359
141 2.4793 229(15) 240.4598 240.4598
142 2.4813 239(15) 240.3838 240.3838
143 2.4833 233(15) 240.3078 240.3078
144 2.4853 238(15) 240.2318 240.2318
145 2.4873 230(15) 240.1558 240.1558
146 2.4893 235(15) 240.0799 240.0799
147 2.4913 234(15) 240.0040 240.0040
148 2.4933 238(15) 240.4081 239.9282
149 2.4953 239(15) 240.3537 239.8523
150 2.4973 236(15) 240.3007 239.7765
151 2.4993 237(15) 240.2494 239.7008
152 2.5013 245(16) 240.1998 239.6250
153 2.5033 243(16) 240.1522 239.5493
154 2.5053 240(15) 240.1067 239.4736
155 2.5073 240(16) 240.0636 239.3980
156 2.5093 242(16) 240.0231 239.3224
157 2.5113 244(16) 239.9855 239.2468
158 2.5133 235(15) 239.9511 239.1713
159 2.5153 223(15) 239.9202 239.0958
160 2.5173 231(15) 239.8933 239.0203
161 2.5193 238(15) 239.8708 238.9448
162 2.5213 258(16) 239.8533 238.8694
163 2.5233 243(16) 239.8415 238.7940
164 2.5253 243(16) 239.8360 238.7187
165 2.5273 242(16) 239.8377 238.6433
166 2.5293 242(16) 239.8477 238.5681
167 2.5313 247(16) 239.8672 238.4928
168 2.5333 231(15) 239.8976 238.4175
169 2.5353 237(15) 239.9406 238.3424
170 2.5373 227(15) 240.5168 238.2672
171 2.5393 228(15) 240.6149 238.1921
172 2.5413 244(16) 240.7350 238.1170
173 2.5433 250(16) 240.8809 238.0419
174 2.5453 235(15) 241.0572 237.9668
175 2.5473 233(15) 241.2699 237.8918
176 2.5493 239(15) 241.5255 237.8168
177 2.5513 227(15) 241.8320 237.7419
178 2.5533 231(15) 242.1979 237.6670
179 2.5553 240(15) 242.6325 237.5921
180 2.5573 240(16) 243.1474 237.5172
181 2.5593 238(15) 243.7621 237.4424
182 2.5613 245(16) 244.5200 237.3676
183 2.5633 254(16) 245.5238 237.2928
184 2.5653 247(16) 247.0101 237.2181
185 2.5673 249(16) 249.5121 237.1434
186 2.5693 253(16) 254.2551 237.0688
187 2.5713 249(16) 264.1875 236.9941
188 2.5733 293(17) 286.1768 236.9195
189 2.5753 336(18) 333.2971 236.8449
190 2.5773 402(20) 421.1605 236.7704
191 2.5793 477(22) 549.6290 236.6959
192 2.5813 587(24) 677.7179 236.6214
193 2.5833 615(25) 727.1694 236.5469
194 2.5853 538(23) 642.3267 236.4725
195 2.5873 426(21) 470.0775 236.3981
196 2.5893 341(18) 326.1014 236.3237
197 2.5913 280(17) 262.2223 236.2494
198 2.5933 276(17) 251.8093 236.1751
199 2.5953 255(16) 255.9946 236.1009
200 2.5973 255(16) 257.8763 236.0266
201 2.5993 235(15) 256.8071 235.9524
202 2.6013 239(15) 255.1819 235.8782
203 2.6033 244(16) 253.8781 235.8041
204 2.6053 234(15) 252.9440 235.7299
205 2.6073 241(16) 252.4800 235.6559
206 2.6093 237(15) 252.8381 235.5818
207 2.6113 251(16) 254.7454 235.5078
208 2.6133 255(16) 259.8198 235.4338
209 2.6153 270(16) 271.9677 235.3599
210 2.6173 281(17) 300.0316 235.2859
211 2.6193 339(18) 359.5229 235.2120
212 2.6213 427(21) 465.2682 235.1382
213 2.6233 541(23) 607.9835 235.0643
214 2.6253 736(27) 730.9774 234.9905
215 2.6273 835(29) 748.5980 234.9167
216 2.6293 656(26) 623.9166 234.8430
217 2.6313 404(20) 437.6739 234.7693
218 2.6333 318(18) 306.0910 234.6956
219 2.6353 272(16) 256.8308 234.6219
220 2.6373 250(16) 251.7522 234.5483
221 2.6393 247(16) 254.9209 234.4747
222 2.6413 253(16) 254.7270 234.4011
223 2.6433 243(16) 252.3400 234.3276
224 2.6453 240(15) 249.8264 234.2541
225 2.6473 241(16) 247.6293 234.1806
226 2.6493 234(15) 245.6522 234.1072
227 2.6513 228(15) 243.8779 234.0338
228 2.6533 231(15) 242.3501 233.9604
229 2.6553 229(15) 241.0847 233.8871
230 2.6573 228(15) 240.0562 233.8137
231 2.6593 240(15) 239.2192 233.7404
232 2.6613 232(15) 238.5287 233.6672
233 2.6633 222(15) 237.9479 233.5939
234 2.6653 248(16) 237.4497 233.5207
235 2.6673 228(15) 237.0153 233.4476
236 2.6693 236(15) 236.6312 233.3744
237 2.6713 224(15) 236.2879 233.3013
238 2.6733 231(15) 235.9782 233.2283
239 2.6753 229(15) 235.6966 233.1552
240 2.6773 220(15) 235.4388 233.0822
241 2.6793 221(15) 234.7332 233.0092
242 2.6813 223(15) 234.5321 232.9362
243 2.6833 221(15) 234.3448 232.8633
244 2.6853 235(15) 234.1693 232.7904
245 2.6873 229(15) 234.0041 232.7175
246 2.6893 223(15) 233.8479 232.6447
247 2.6913 229(15) 233.6995 232.5719
248 2.6933 214(15) 233.5581 232.4991
249 2.6953 235(15) 233.4228 232.4264
250 2.6973 224(15) 233.2928 232.3536
251 2.6993 228(15) 233.1677 232.2809
252 2.7013 226(15) 233.0468 232.2083
253 2.7033 230(15) 232.9299 232.1357
254 2.7053 212(15) 232.8163 232.0630
255 2.7073 229(15) 232.7059 231.9905
256 2.7093 224(15) 232.5983 231.9179
257 2.7113 225(15) 232.4932 231.8454
258 2.7133 222(15) 232.3904 231.7729
259 2.7153 222(15) 232.2898 231.7005
260 2.7173 232(15) 232.1910 231.6281
261 2.7193 228(15) 232.0940 231.5557
262 2.7213 234(15) 231.9986 231.4833
263 2.7233 227(15) 231.4110 231.4110
264 2.7253 214(15) 231.3387 231.3387
265 2.7273 226(15) 231.2664 231.2664
266 2.7293 230(15) 231.1942 231.1942
267 2.7313 224(15) 231.1219 231.1219
268 2.7333 230(15) 231.0498 231.0498
269 2.7353 214(15) 230.9776 230.9776
270 2.7373 224(15) 230.9055 230.9055
271 2.7393 222(15) 230.8334 230.8334
272 2.7413 226(15) 230.7614 230.7614
273 2.7433 226(15) 230.6893 230.6893
274 2.7453 213(15) 230.6173 230.6173
275 2.7473 215(15) 230.5453 230.5453
276 2.7493 229(15) 230.4734 230.4734
277 2.7513 223(15) 230.4015 230.4015
278 2.7533 220(15) 230.3296 230.3296
279 2.7553 218(15) 230.2577 230.2577
280 2.7573 236(15) 230.1859 230.1859
281 2.7593 208(14) 230.1141 230.1141
282 2.7613 214(15) 230.0423 230.0423
283 2.7633 221(15) 229.9706 229.9706
284 2.7653 220(15) 229.8988 229.8988
285 2.7673 215(15) 229.8272 229.8272
286 2.7693 215(15) 229.7555 229.7555
287 2.7713 221(15) 229.6839 229.6839
288 2.7733 224(15) 229.6123 229.6123
289 2.7753 223(15) 229.5408 229.5408
290 2.7773 216(15) 229.4692 229.4692
291 2.7793 218(15) 229.3977 229.3977
292 2.7813 219(15) 229.3263 229.3263
293 2.7833 219(15) 229.2548 229.2548
294 2.7853 217(15) 229.1834 229.1834
295 2.7873 223(15) 229.1120 229.1120
296 2.7893 214(15) 229.0406 229.0406
297 2.7913 222(15) 228.9693 228.9693
298 2.7933 221(15) 228.8980 228.8980
299 2.7953 239(15) 228.8267 228.8267
300 2.7973 225(15) 228.7555 228.7555
301 2.7993 222(15) 228.6843 228.6843
302 2.8013 224(15) 228.6131 228.6131
303 2.8033 226(15) 228.5419 228.5419
304 2.8053 204(14) 228.4708 228.4708
305 2.8073 220(15) 228.3997 228.3997
306 2.8093 219(15) 228.3286 228.3286
307 2.8113 218(15) 228.2576 228.2576
308 2.8133 213(15) 228.1866 228.1866
309 2.8153 218(15) 228.1156 228.1156
310 2.8173 236(15) 228.0446 228.0446
311 2.8193 216(15) 227.9737 227.9737
312 2.8213 211(15) 227.9028 227.9028
313 2.8233 222(15) 227.8320 227.8320
314 2.8253 229(15) 227.7611 227.7611
315 2.8273 223(15) 227.6903 227.6903
316 2.8293 231(15) 227.6196 227.6196
317 2.8313 225(15) 227.5488 227.5488
318 2.8333 212(15) 227.4781 227.4781
319 2.8353 215(15) 227.4074 227.4074
320 2.8373 219(15) 227.3367 227.3367
321 2.8393 226(15) 227.2661 227.2661
322 2.8413 219(15) 227.1955 227.1955
323 2.8433 225(15) 227.1249 227.1249
324 2.8453 214(15) 227.0544 227.0544
325 2.8473 211(15) 226.9839 226.9839
326 2.8493 215(15) 226.9134 226.9134
327 2.8513 217(15) 226.8429 226.8429
328 2.8533 213(15) 226.7725 226.7725
329 2.8553 228(15) 226.7021 226.7021
330 2.8573 226(15) 226.6317 226.6317
331 2.8593 208(14) 226.5613 226.5613
332 2.8613 219(15) 226.4910 226.4910
333 2.8633 228(15) 226.4207 226.4207
334 2.8653 227(15) 226.3504 226.3504
335 2.8673 215(15) 226.2802 226.2802
336 2.8693 214(15) 226.2100 226.2100
337 2.8713 215(15) 226.1398 226.1398
338 2.8733 219(15) 226.0697 226.0697
339 2.8753 220(15) 225.9996 225.9996
340 2.8773 226(15) 225.9295 225.9295
341 2.8793 216(15) 225.8594 225.8594
342 2.8813 216(15) 225.7894 225.7894
343 2.8833 216(15) 225.7194 225.7194
344 2.8853 215(15) 225.6494 225.6494
345 2.8873 214(15) 225.5795 225.5795
346 2.8893 215(15) 225.5095 225.5095
347 2.8913 222(15) 225.4396 225.4396
348 2.8933 216(15) 225.3698 225.3698
349 2.8953 220(15) 225.3000 225.3000
350 2.8973 226(15) 225.2301 225.2301
351 2.8993 226(15) 225.1604 225.1604
352 2.9013 223(15) 225.0906 225.0906
353 2.9033 229(15) 225.0209 225.0209
354 2.9053 227(15) 224.9512 224.9512
355 2.9073 222(15) 224.8816 224.8816
356 2.9093 217(15) 224.8119 224.8119
357 2.9113 228(15) 224.7423 224.7423
358 2.9133 227(15) 224.6727 224.6727
359 2.9153 225(15) 224.6032 224.6032
360 2.9173 207(14) 224.5336 224.5336
361 2.9193 226(15) 224.4642 224.4642
362 2.9213 223(15) 224.3947 224.3947
363 2.9233 217(15) 224.3252 224.3252
364 2.9253 228(15) 224.2558 224.2558
365 2.9273 232(15) 224.1865 224.1865
366 2.9293 213(15) 224.1171 224.1171
367 2.9313 222(15) 224.0478 224.0478
368 2.9333 215(15) 223.9785 223.9785
369 2.9353 218(15) 223.9092 223.9092
370 2.9373 226(15) 223.8400 223.8400
371 2.9393 212(15) 223.7707 223.7707
372 2.9413 228(15) 223.7016 223.7016
373 2.9433 203(14) 223.6324 223.6324
374 2.9453 217(15) 223.5633 223.5633
375 2.9473 221(15) 223.4942 223.4942
376 2.9493 211(15) 223.4251 223.4251
377 2.9513 216(15) 223.3560 223.3560
378 2.9533 213(15) 223.2870 223.2870
379 2.9553 222(15) 223.2180 223.2180
380 2.9573 231(15) 223.1491 223.1491
381 2.9593 217(15) 223.0801 223.0801
382 2.9613 220(15) 223.0112 223.0112
383 2.9633 220(15) 222.9424 222.9424
384 2.9653 219(15) 222.8735 222.8735
385 2.9673 224(15) 222.8047 222.8047
386 2.9693 223(15) 222.7359 222.7359
387 2.9713 228(15) 222.6671 222.6671
388 2.9733 216(15) 222.5984 222.5984
389 2.9753 228(15) 222.5297 222.5297
390 2.9773 215(15) 222.4610 222.4610
391 2.9793 234(15) 222.3923 222.3923
392 2.9813 207(14) 222.3237 222.3237
393 2.9833 208(14) 222.2551 222.2551
394 2.9853 218(15) 222.1865 222.1865
395 2.9873 221(15) 222.1180 222.1180
396 2.9893 221(15) 222.0495 222.0495
397 2.9913 211(15) 221.9810 221.9810
398 2.9933 217(15) 221.9125 221.9125
399 2.9953 219(15) 221.8441 221.8441
400 2.9973 212(15) 221.7757 221.7757
401 2.9993 219(15) 221.7073 221.7073
402 3.0013 216(15) 221.6389 221.6389
403 3.0033 224(15) 221.5706 221.5706
404 3.0053 226(15) 221.5023 221.5023
405 3.0073 230(15) 221.4340 221.4340
406 3.0093 220(15) 221.3658 221.3658
407 3.0113 219(15) 221.2976 221.2976
408 3.0133 218(15) 221.2294 221.2294
409 3.0153 234(15) 221.1612 221.1612
410 3.0173 226(15) 221.0931 221.0931
411 3.0193 229(15) 221.0250 221.0250
412 3.0213 221(15) 220.9569 220.9569
413 3.0233 215(15) 220.8888 220.8888
414 3.0253 219(15) 220.8208 220.8208
415 3.0273 218(15) 220.7528 220.7528
416 3.0293 210(14) 220.6848 220.6848
417 3.0313 221(15) 220.6169 220.6169
418 3.0333 218(15) 220.5490 220.5490
419 3.0353 216(15) 220.4811 220.4811
420 3.0373 216(15) 220.4132 220.4132
421 3.0393 223(15) 220.3454 220.3454
422 3.0413 227(15) 220.2776 220.2776
423 3.0433 216(15) 220.2098 220.2098
424 3.0453 217(15) 220.1421 220.1421
425 3.0473 217(15) 220.0744 220.0744
426 3.0493 211(15) 220.0067 220.0067
427 3.0513 215(15) 219.9390 219.9390
428 3.0533 223(15) 219.8714 219.8714
429 3.0553 218(15) 219.8037 219.8037
430 3.0573 210(14) 219.7361 219.7361
431 3.0593 218(15) 219.6686 219.6686
432 3.0613 223(15) 219.6011 219.6011
433 3.0633 225(15) 219.5335 219.5335
434 3.0653 229(15) 219.4661 219.4661
435 3.0673 217(15) 219.3986 219.3986
436 3.0693 224(15) 219.3312 219.3312
437 3.0713 226(15) 219.2638 219.2638
438 3.0733 217(15) 219.1964 219.1964
439 3.0753 217(15) 219.1291 219.1291
440 3.0773 223(15) 219.0618 219.0618
441 3.0793 225(15) 218.9945 218.9945
442 3.0813 219(15) 218.9272 218.9272
443 3.0833 217(15) 218.8600 218.8600
444 3.0853 222(15) 218.7928 218.7928
445 3.0873 215(15) 218.7256 218.7256
446 3.0893 213(15) 218.6584 218.6584
447 3.0913 220(15) 218.5913 218.5913
448 3.0933 226(15) 218.5242 218.5242
449 3.0953 222(15) 218.4571 218.4571
450 3.0973 215(15) 218.3901 218.3901
451 3.0993 228(15) 218.3231 218.3231
452 3.1013 223(15) 218.2560 218.2560
453 3.1033 216(15) 218.1891 218.1891
454 3.1053 226(15) 218.1222 218.1222
455 3.1073 219(15) 218.0552 218.0552
456 3.1093 232(15) 217.9883 217.9883
457 3.1113 214(15) 217.9215 217.9215
458 3.1133 224(15) 217.8546 217.8546
459 3.1153 219(15) 217.7878 217.7878
460 3.1173 221(15) 217.7211 217.7211
461 3.1193 218(15) 217.6543 217.6543
462 3.1213 205(14) 217.5876 217.5876
463 3.1233 222(15) 217.5209 217.5209
464 3.1253 208(14) 217.4542 217.4542
465 3.1273 204(14) 217.3875 217.3875
466 3.1293 205(14) 217.3209 217.3209
467 3.1313 205(14) 217.2543 217.2543
468 3.1333 219(15) 217.1878 217.1878
469 3.1353 220(15) 217.1212 217.1212
470 3.1373 229(15) 217.0547 217.0547
471 3.1393 216(15) 216.9882 216.9882
472 3.1413 217(15) 216.9218 216.9218
473 3.1433 224(15) 216.8553 216.8553
474 3.1453 212(15) 216.7889 216.7889
475 3.1473 222(15) 216.7225 216.7225
476 3.1493 221(15) 216.6562 216.6562
477 3.1513 211(15) 216.5899 216.5899
478 3.1533 232(15) 216.5235 216.5235
479 3.1553 220(15) 216.4573 216.4573
480 3.1573 214(15) 216.3910 216.3910
481 3.1593 222(15) 216.3248 216.3248
482 3.1613 218(15) 216.2586 216.2586
483 3.1633 218(15) 216.1924 216.1924
484 3.1653 211(15) 216.1263 216.1263
485 3.1673 226(15) 216.0602 216.0602
486 3.1693 214(15) 215.9941 215.9941
487 3.1713 212(15) 215.9280 215.9280
488 3.1733 211(15) 215.8620 215.8620
489 3.1753 204(14) 215.7959 215.7959
490 3.1773 214(15) 215.7300 215.7300
491 3.1793 222(15) 215.6640 215.6640
492 3.1813 222(15) 215.5981 215.5981
493 3.1833 217(15) 215.5322 215.5322
494 3.1853 217(15) 215.4663 215.4663
495 3.1873 214(15) 215.4004 215.4004
496 3.1893 223(15) 215.3346 215.3346
497 3.1913 209(14) 215.2688 215.2688
498 3.1933 214(15) 215.2030 215.2030
499 3.1953 213(15) 215.1373 215.1373
500 3.1973 227(15) 215.0715 215.0715
501 3.1993 216(15) 215.0058 215.0058
502 3.2013 222(15) 214.9402 214.9402
503 3.2033 208(14) 214.8745 214.8745
504 3.2053 215(15) 214.8089 214.8089
505 3.2073 220(15) 214.7433 214.7433
506 3.2093 206(14) 214.6777 214.6777
507 3.2113 209(14) 214.6122 214.6122
508 3.2133 213(15) 214.5467 214.5467
509 3.2153 223(15) 214.4812 214.4812
510 3.2173 213(15) 214.4157 214.4157
511 3.2193 223(15) 214.3503 214.3503
512 3.2213 214(15) 214.2849 214.2849
513 3.2233 220(15) 214.2195 214.2195
514 3.2253 211(15) 214.1541 214.1541
515 3.2273 220(15) 214.0888 214.0888
516 3.2293 231(15) 214.0235 214.0235
517 3.2313 208(14) 213.9582 213.9582
518 3.2333 214(15) 213.8929 213.8929
519 3.2353 203(14) 213.8277 213.8277
520 3.2373 220(15) 213.7625 213.7625
521 3.2393 217(15) 213.6973 213.6973
522 3.2413 214(15) 213.6321 213.6321
523 3.2433 212(15) 213.5670 213.5670
524 3.2453 216(15) 213.5019 213.5019
525 3.2473 205(14) 213.4369 213.4369
526 3.2493 217(15) 213.3718 213.3718
527 3.2513 213(15) 213.3068 213.3068
528 3.2533 219(15) 213.2418 213.2418
529 3.2553 212(15) 213.1768 213.1768
530 3.2573 216(15) 213.1118 213.1118
531 3.2593 213(15) 213.0469 213.0469
532 3.2613 219(15) 212.9820 212.9820
533 3.2633 216(15) 212.9171 212.9171
534 3.2653 221(15) 212.8523 212.8523
535 3.2673 213(15) 212.7875 212.7875
536 3.2693 214(15) 212.7227 212.7227
537 3.2713 211(15) 212.6579 212.6579
538 3.2733 221(15) 212.5932 212.5932
539 3.2753 193(14) 212.5284 212.5284
540 3.2773 205(14) 212.4638 212.4638
541 3.2793 210(14) 212.3991 212.3991
542 3.2813 222(15) 212.3345 212.3345
543 3.2833 204(14) 212.2698 212.2698
544 3.2853 202(14) 212.2052 212.2052
545 3.2873 213(15) 212.1407 212.1407
546 3.2893 219(15) 212.0761 212.0761
547 3.2913 215(15) 212.0116 212.0116
548 3.2933 215(15) 211.9471 211.9471
549 3.2953 211(15) 211.8827 211.8827
550 3.2973 209(14) 211.8182 211.8182
551 3.2993 215(15) 211.7538 211.7538
552 3.3013 205(14) 211.6894 211.6894
553 3.3033 198(14) 211.6251 211.6251
554 3.3053 215(15) 211.5607 211.5607
555 3.3073 215(15) 211.4964 211.4964
556 3.3093 221(15) 211.4321 211.4321
557 3.3113 215(15) 211.3679 211.3679
558 3.3133 206(14) 211.3036 211.3036
559 3.3153 219(15) 211.2394 211.2394
560 3.3173 209(14) 211.1752 211.1752
561 3.3193 210(15) 211.1111 211.1111
562 3.3213 217(15) 211.0470 211.0470
563 3.3233 207(14) 210.9828 210.9828
564 3.3253 222(15) 210.9187 210.9187
565 3.3273 221(15) 210.8547 210.8547
566 3.3293 211(15) 210.7907 210.7907
567 3.3313 204(14) 210.7267 210.7267
568 3.3333 217(15) 210.6627 210.6627
569 3.3353 214(15) 210.5987 210.5987
570 3.3373 216(15) 210.5348 210.5348
571 3.3393 207(14) 210.4709 210.4709
572 3.3413 216(15) 210.4070 210.4070
573 3.3433 210(14) 210.3431 210.3431
574 3.3453 210(14) 210.2793 210.2793
575 3.3473 209(14) 210.2155 210.2155
576 3.3493 212(15) 210.1517 210.1517
577 3.3513 220(15) 210.0880 210.0880
578 3.3533 215(15) 210.0242 210.0242
579 3.3553 233(15) 211.4224 209.9605
580 3.3573 240(15) 211.4254 209.8968
581 3.3593 211(15) 211.4332 209.8332
582 3.3613 226(15) 211.4460 209.7695
583 3.3633 218(15) 211.4646 209.7059
584 3.3653 218(15) 211.4893 209.6423
585 3.3673 225(15) 211.5208 209.5788
586 3.3693 227(15) 211.5600 209.5153
587 3.3713 221(15) 211.6074 209.4517
588 3.3733 231(15) 211.6641 209.3883
589 3.3753 233(15) 211.7312 209.3248
590 3.3773 218(15) 211.8099 209.2614
591 3.3793 226(15) 211.9015 209.1980
592 3.3813 230(15) 212.0077 209.1346
593 3.3833 233(15) 212.1304 209.0712
594 3.3853 249(16) 212.2717 209.0079
595 3.3873 239(15) 212.4341 208.9446
596 3.3893 235(15) 212.6208 208.8813
597 3.3913 229(15) 212.8353 208.8180
598 3.3933 236(15) 213.0817 208.7548
599 3.3953 245(16) 213.3653 208.6916
600 3.3973 258(16) 213.6921 208.6284
601 3.3993 248(16) 214.0695 208.5652
602 3.4013 252(16) 214.5067 208.5021
603 3.4033 260(16) 215.0150 208.4390
604 3.4053 267(16) 215.6078 208.3759
605 3.4073 258(16) 216.3021 208.3128
606 3.4093 256(16) 217.1187 208.2498
607 3.4113 264(16) 218.0818 208.1868
608 3.4133 274(17) 219.2202 208.1238
609 3.4153 275(17) 220.5672 208.0608
610 3.4173 283(17) 222.1645 207.9979
611 3.4193 263(16) 224.0748 207.9350
612 3.4213 279(17) 226.4189 207.8721
613 3.4233 287(17) 229.4605 207.8092
614 3.4253 285(17) 233.7882 207.7464
615 3.4273 291(17) 240.7395 207.6836
616 3.4293 300(17) 253.4626 207.6208
617 3.4313 331(18) 279.6741 207.5580
618 3.4333 388(20) 337.4965 207.4953
619 3.4353 565(24) 461.8015 207.4325
620 3.4373 761(28) 695.1264 207.3699
621 3.4393 1097(33) 1040.4265 207.3072
622 3.4413 1629(40) 1395.0244 207.2445
623 3.4433 1782(42) 1556.4731 207.1819
624 3.4453 1474(38) 1373.6370 207.1193
625 3.4473 1025(32) 954.5764 207.0567
626 3.4493 649(25) 583.6512 206.9942
627 3.4513 481(22) 390.3245 206.9317
628 3.4533 385(20) 320.2890 206.8692
629 3.4553 315(18) 292.9696 206.8067
630 3.4573 251(16) 273.9515 206.7442
631 3.4593 265(16) 259.1285 206.6818
632 3.4613 244(16) 248.8838 206.6194
633 3.4633 244(16) 241.6726 206.5571
634 3.4653 211(15) 235.9725 206.4947
635 3.4673 219(15) 231.1895 206.4324
636 3.4693 225(15) 227.2113 206.3700
637 3.4713 235(15) 223.9865 206.3078
638 3.4733 219(15) 221.4083 206.2455
639 3.4753 211(15) 219.3438 206.1833
640 3.4773 203(14) 217.6699 206.1211
641 3.4793 207(14) 216.2890 206.0589
642 3.4813 213(15) 215.1296 205.9967
643 3.4833 211(15) 214.1414 205.9346
644 3.4853 215(15) 213.2887 205.8725
645 3.4873 209(14) 212.5451 205.8104
646 3.4893 210(15) 211.8911 205.7483
647 3.4913 214(15) 211.3118 205.6863
648 3.4933 211(15) 210.7949 205.6243
649 3.4953 194(14) 210.3307 205.5623
650 3.4973 217(15) 209.9117 205.5003
651 3.4993 211(15) 209.5311 205.4384
652 3.5013 209(14) 209.1838 205.3764
653 3.5033 212(15) 208.8652 205.3146
654 3.5053 208(14) 208.5717 205.2527
655 3.5073 201(14) 208.3002 205.1909
656 3.5093 202(14) 208.0478 205.1290
657 3.5113 209(14) 207.8125 205.0672
658 3.5133 219(15) 207.5921 205.0055
659 3.5153 207(14) 207.3851 204.9437
660 3.5173 199(14) 207.1900 204.8820
661 3.5193 206(14) 207.0056 204.8203
662 3.5213 211(15) 206.8307 204.7586
663 3.5233 216(15) 206.6643 204.6969
664 3.5253 209(14) 206.5057 204.6353
665 3.5273 210(14) 206.3542 204.5737
666 3.5293 208(14) 206.2089 204.5121
667 3.5313 211(15) 206.0695 204.4506
668 3.5333 207(14) 205.9353 204.3890
669 3.5353 205(14) 205.8059 204.3275
670 3.5373 206(14) 204.2660 204.2660
671 3.5393 211(15) 204.2045 204.2045
672 3.5413 211(15) 204.1431 204.1431
673 3.5433 199(14) 204.0817 204.0817
674 3.5453 194(14) 204.0203 204.0203
675 3.5473 210(14) 203.9589 203.9589
676 3.5493 211(15) 203.8976 203.8976
677 3.5513 209(14) 203.8363 203.8363
678 3.5533 204(14) 203.7749 203.7749
679 3.5553 196(14) 203.7137 203.7137
680 3.5573 202(14) 203.6524 203.6524
681 3.5593 201(14) 203.5912 203.5912
682 3.5613 213(15) 203.5300 203.5300
683 3.5633 212(15) 203.4688 203.4688
684 3.5653 209(14) 203.4077 203.4077
685 3.5673 208(14) 203.3465 203.3465
686 3.5693 206(14) 203.2854 203.2854
687 3.5713 197(14) 203.2243 203.2243
688 3.5733 200(14) 203.1633 203.1633
689 3.5753 208(14) 203.1022 203.1022
690 3.5773 195(14) 203.0412 203.0412
691 3.5793 201(14) 202.9802 202.9802
692 3.5813 204(14) 202.9193 202.9193
693 3.5833 211(15) 202.8583 202.8583
694 3.5853 217(15) 202.7974 202.7974
695 3.5873 207(14) 202.7365 202.7365
696 3.5893 208(14) 202.6756 202.6756
697 3.5913 193(14) 202.6148 202.6148
698 3.5933 215(15) 202.5540 202.5540
699 3.5953 205(14) 202.4931 202.4931
700 3.5973 195(14) 202.4324 202.4324
701 3.5993 201(14) 202.3716 202.3716
702 3.6013 203(14) 202.3109 202.3109
703 3.6033 187(14) 202.2502 202.2502
704 3.6053 201(14) 202.1895 202.1895
705 3.6073 197(14) 202.1288 202.1288
706 3.6093 191(14) 202.0682 202.0682
707 3.6113 192(14) 202.0076 202.0076
708 3.6133 203(14) 201.9469 201.9469
709 3.6153 191(14) 201.8864 201.8864
710 3.6173 207(14) 201.8258 201.8258
711 3.6193 201(14) 201.7653 201.7653
712 3.6213 198(14) 201.7048 201.7048
713 3.6233 211(15) 201.6443 201.6443
714 3.6253 206(14) 201.5839 201.5839
715 3.6273 188(14) 201.5234 201.5234
716 3.6293 192(14) 201.4630 201.4630
717 3.6313 206(14) 201.4027 201.4027
718 3.6333 208(14) 201.3423 201.3423
719 3.6353 216(15) 201.2820 201.2820
720 3.6373 210(14) 201.2216 201.2216
721 3.6393 206(14) 201.1613 201.1613
722 3.6413 192(14) 201.1011 201.1011
723 3.6433 202(14) 201.0408 201.0408
724 3.6453 200(14) 200.9806 200.9806
725 3.6473 202(14) 200.9204 200.9204
726 3.6493 205(14) 200.8602 200.8602
727 3.6513 187(14) 200.8001 200.8001
728 3.6533 198(14) 200.7399 200.7399
729 3.6553 216(15) 200.6798 200.6798
730 3.6573 198(14) 200.6198 200.6198
731 3.6593 196(14) 200.5597 200.5597
732 3.6613 201(14) 200.4996 200.4996
733 3.6633 209(14) 200.4396 200.4396
734 3.6653 198(14) 200.3797 200.3797
735 3.6673 199(14) 200.3197 200.3197
736 3.6693 214(15) 200.2598 200.2598
737 3.6713 194(14) 200.1998 200.1998
738 3.6733 196(14) 200.1399 200.1399
739 3.6753 196(14) 200.0800 200.0800
740 3.6773 199(14) 200.0202 200.0202
741 3.6793 197(14) 199.9603 199.9603
742 3.6813 192(14) 199.9005 199.9005
743 3.6833 200(14) 199.8408 199.8408
744 3.6853 213(15) 199.7810 199.7810
745 3.6873 197(14) 199.7212 199.7212
746 3.6893 194(14) 199.6615 199.6615
747 3.6913 199(14) 199.6018 199.6018
748 3.6933 208(14) 199.5421 199.5421
749 3.6953 194(14) 199.4825 199.4825
750 3.6973 190(14) 199.4229 199.4229
751 3.6993 187(14) 199.3633 199.3633
752 3.7013 191(14) 199.3037 199.3037
753 3.7033 186(14) 199.2441 199.2441
754 3.7053 197(14) 199.1846 199.1846
755 3.7073 206(14) 199.1251 199.1251
756 3.7093 204(14) 199.0656 199.0656
757 3.7113 192(14) 199.0061 199.0061
758 3.7133 193(14) 198.9467 198.9467
759 3.7153 193(14) 198.8873 198.8873
760 3.7173 190(14) 198.8279 198.8279
761 3.7193 202(14) 198.7685 198.7685
762 3.7213 191(14) 198.7091 198.7091
763 3.7233 199(14) 198.6498 198.6498
764 3.7253 196(14) 198.5905 198.5905
765 3.7273 194(14) 198.5312 198.5312
766 3.7293 206(14) 198.4720 198.4720
767 3.7313 193(14) 198.4127 198.4127
768 3.7333 190(14) 198.3535 198.3535
769 3.7353 199(14) 198.2943 198.2943
770 3.7373 195(14) 198.2351 198.2351
771 3.7393 198(14) 198.1759 198.1759
772 3.7413 189(14) 198.1168 198.1168
773 3.7433 192(14) 198.0577 198.0577
774 3.7453 190(14) 197.9986 197.9986
775 3.7473 187(14) 197.9396 197.9396
776 3.7493 195(14) 197.8806 197.8806
777 3.7513 200(14) 197.8215 197.8215
778 3.7533 204(14) 197.7625 197.7625
779 3.7553 202(14) 197.7036 197.7036
780 3.7573 200(14) 197.6446 197.6446
781 3.7593 197(14) 197.5857 197.5857
782 3.7613 197(14) 197.5268 197.5268
783 3.7633 180(13) 197.4679 197.4679
784 3.7653 193(14) 197.4090 197.4090
785 3.7673 185(14) 197.3502 197.3502
786 3.7693 192(14) 197.2914 197.2914
787 3.7713 196(14) 197.2326 197.2326
788 3.7733 188(14) 197.1738 197.1738
789 3.7753 200(14) 197.1151 197.1151
790 3.7773 195(14) 197.0564 197.0564
791 3.7793 191(14) 196.9977 196.9977
792 3.7813 184(14) 196.9390 196.9390
793 3.7833 206(14) 196.8803 196.8803
794 3.7853 199(14) 196.8217 196.8217
795 3.7873 198(14) 196.7631 196.7631
796 3.7893 190(14) 196.7045 196.7045
797 3.7913 197(14) 196.6459 196.6459
798 3.7933 187(14) 196.5874 196.5874
799 3.7953 197(14) 196.5288 196.5288
800 3.7973 197(14) 196.4703 196.4703
801 3.7993 194(14) 196.4118 196.4118
802 3.8013 209(14) 196.3534 196.3534
803 3.8033 191(14) 196.2950 196.2950
804 3.8053 200(14) 196.2365 196.2365
805 3.8073 196(14) 196.1781 196.1781
806 3.8093 192(14) 196.1198 196.1198
807 3.8113 194(14) 196.0614 196.0614
808 3.8133 201(14) 196.0031 196.0031
809 3.8153 196(14) 195.9448 195.9448
810 3.8173 188(14) 195.8865 195.8865
811 3.8193 191(14) 195.8282 195.8282
812 3.8213 189(14) 195.7700 195.7700
813 3.8233 194(14) 195.7118 195.7118
814 3.8253 192(14) 195.6536 195.6536
815 3.8273 195(14) 195.5954 195.5954
816 3.8293 186(14) 195.5373 195.5373
817 3.8313 195(14) 195.4792 195.4792
818 3.8333 204(14) 195.4211 195.4211
819 3.8353 192(14) 195.3630 195.3630
820 3.8373 192(14) 195.3049 195.3049
821 3.8393 202(14) 195.2469 195.2469
822 3.8413 198(14) 195.1889 195.1889
823 3.8433 193(14) 195.1309 195.1309
824 3.8453 193(14) 195.0729 195.0729
825 3.8473 185(14) 195.0149 195.0149
826 3.8493 192(14) 194.9570 194.9570
827 3.8513 188(14) 194.8991 194.8991
828 3.8533 184(14) 194.8412 194.8412
829 3.8553 199(14) 194.7834 194.7834
830 3.8573 192(14) 194.7255 194.7255
831 3.8593 198(14) 194.6677 194.6677
832 3.8613 188(14) 194.6099 194.6099
833 3.8633 190(14) 194.5521 194.5521
834 3.8653 186(14) 194.4944 194.4944
835 3.8673 193(14) 194.4366 194.4366
836 3.8693 190(14) 194.3789 194.3789
837 3.8713 194(14) 194.3212 194.3212
838 3.8733 197(14) 194.2635 194.2635
839 3.8753 195(14) 194.2059 194.2059
840 3.8773 190(14) 194.1483 194.1483
841 3.8793 180(13) 194.0907 194.0907
842 3.8813 192(14) 194.0331 194.0331
843 3.8833 188(14) 193.9755 193.9755
844 3.8853 196(14) 193.9180 193.9180
845 3.8873 195(14) 193.8605 193.8605
846 3.8893 187(14) 193.8030 193.8030
847 3.8913 192(14) 193.7455 193.7455
848 3.8933 182(13) 193.6880 193.6880
849 3.8953 198(14) 193.6306 193.6306
850 3.8973 196(14) 193.5732 193.5732
851 3.8993 189(14) 193.5158 193.5158
852 3.9013 191(14) 193.4585 193.4585
853 3.9033 183(14) 193.4011 193.4011
854 3.9053 184(14) 193.3438 193.3438
855 3.9073 195(14) 193.2865 193.2865
856 3.9093 183(14) 193.2292 193.2292
857 3.9113 183(14) 193.1720 193.1720
858 3.9133 191(14) 193.1147 193.1147
859 3.9153 190(14) 193.0575 193.0575
860 3.9173 189(14) 193.0003 193.0003
861 3.9193 194(14) 192.9431 192.9431
862 3.9213 188(14) 192.8860 192.8860
863 3.9233 185(14) 192.8288 192.8288
864 3.9253 184(14) 192.7717 192.7717
865 3.9273 195(14) 192.7147 192.7147
866 3.9293 188(14) 192.6576 192.6576
867 3.9313 197(14) 192.6006 192.6006
868 3.9333 189(14) 192.5435 192.5435
869 3.9353 193(14) 192.4865 192.4865
870 3.9373 188(14) 192.4296 192.4296
871 3.9393 187(14) 192.3726 192.3726
872 3.9413 188(14) 192.3157 192.3157
873 3.9433 198(14) 192.2587 192.2587
874 3.9453 189(14) 192.2018 192.2018
875 3.9473 200(14) 192.1450 192.1450
876 3.9493 196(14) 192.0881 192.0881
877 3.9513 186(14) 192.0313 192.0313
878 3.9533 179(13) 191.9745 191.9745
879 3.9553 203(14) 191.9177 191.9177
880 3.9573 193(14) 191.8609 191.8609
881 3.9593 183(14) 191.8042 191.8042
882 3.9613 184(14) 191.7475 191.7475
883 3.9633 191(14) 191.6908 191.6908
884 3.9653 182(13) 191.6341 191.6341
885 3.9673 186(14) 191.5774 191.5774
886 3.9693 181(13) 191.5208 191.5208
887 3.9713 195(14) 191.4642 191.4642
888 3.9733 180(13) 191.4076 191.4076
889 3.9753 195(14) 191.3510 191.3510
890 3.9773 189(14) 191.2944 191.2944
891 3.9793 185(14) 191.2379 191.2379
892 3.9813 184(14) 191.1814 191.1814
893 3.9833 181(13) 191.1249 191.1249
894 3.9853 185(14) 191.0684 191.0684
895 3.9873 182(13) 191.0120 191.0120
896 3.9893 194(14) 190.9556 190.9556
897 3.9913 178(13) 190.8992 190.8992
898 3.9933 177(13) 190.8427 190.8427
899 3.9953 187(14) 190.7864 190.7864
900 3.9973 188(14) 190.7300 190.7300
901 3.9993 193(14) 190.6737 190.6737
902 4.0013 189(14) 190.6174 190.6174
903 4.0033 188(14) 190.5611 190.5611
904 4.0053 193(14) 190.5049 190.5049
905 4.0073 189(14) 190.4486 190.4486
906 4.0093 187(14) 190.3924 190.3924
907 4.0113 180(13) 190.3362 190.3362
908 4.0133 187(14) 190.2801 190.2801
909 4.0153 187(14) 190.2239 190.2239
910 4.0173 197(14) 190.1677 190.1677
911 4.0193 183(14) 190.1117 190.1117
912 4.0213 191(14) 190.0555 190.0555
913 4.0233 197(14) 189.9995 189.9995
914 4.0253 185(14) 189.9434 189.9434
915 4.0273 179(13) 189.8874 189.8874
916 4.0293 189(14) 189.8314 189.8314
917 4.0313 193(14) 189.7754 189.7754
918 4.0333 185(14) 189.7194 189.7194
919 4.0353 189(14) 189.6635 189.6635
920 4.0373 183(14) 189.6076 189.6076
921 4.0393 188(14) 189.5517 189.5517
922 4.0413 191(14) 189.4958 189.4958
923 4.0433 196(14) 189.4399 189.4399
924 4.0453 177(13) 189.3841 189.3841
925 4.0473 183(14) 189.3282 189.3282
926 4.0493 186(14) 189.2725 189.2725
927 4.0513 192(14) 189.2167 189.2167
928 4.0533 187(14) 189.1609 189.1609
929 4.0553 194(14) 189.1052 189.1052
930 4.0573 183(14) 189.0495 189.0495
931 4.0593 184(14) 188.9937 188.9937
932 4.0613 175(13) 188.9381 188.9381
933 4.0633 188(14) 188.8824 188.8824
934 4.0653 189(14) 188.8268 188.8268
935 4.0673 184(14) 188.7712 188.7712
936 4.0693 187(14) 188.7156 188.7156
937 4.0713 186(14) 188.6600 188.6600
938 4.0733 185(14) 188.6044 188.6044
939 4.0753 191(14) 188.5489 188.5489
940 4.0773 183(14) 188.4934 188.4934
941 4.0793 196(14) 188.4379 188.4379
942 4.0813 195(14) 188.3824 188.3824
943 4.0833 195(14) 188.3270 188.3270
944 4.0853 188(14) 188.2716 188.2716
945 4.0873 189(14) 188.2161 188.2161
946 4.0893 186(14) 188.1608 188.1608
947 4.0913 184(14) 188.1054 188.1054
948 4.0933 191(14) 188.0501 188.0501
949 4.0953 185(14) 187.9947 187.9947
950 4.0973 193(14) 187.9394 187.9394
951 4.0993 199(14) 187.8841 187.8841
952 4.1013 184(14) 187.8289 187.8289
953 4.1033 195(14) 187.7736 187.7736
954 4.1053 178(13) 187.7184 187.7184
955 4.1073 180(13) 187.6632 187.6632
956 4.1093 189(14) 187.6080 187.6080
957 4.1113 191(14) 187.5529 187.5529
958 4.1133 194(14) 187.4977 187.4977
959 4.1153 190(14) 187.4426 187.4426
960 4.1173 183(14) 187.3875 187.3875
961 4.1193 181(13) 187.3324 187.3324
962 4.1213 186(14) 187.2774 187.2774
963 4.1233 189(14) 187.2223 187.2223
964 4.1253 189(14) 187.1673 187.1673
965 4.1273 200(14) 187.1123 187.1123
966 4.1293 191(14) 187.0573 187.0573
967 4.1313 193(14) 187.0023 187.0023
968 4.1333 189(14) 186.9474 186.9474
969 4.1353 196(14) 186.8925 186.8925
970 4.1373 195(14) 186.8376 186.8376
971 4.1393 185(14) 186.7827 186.7827
972 4.1413 191(14) 186.7278 186.7278
973 4.1433 196(14) 186.6730 186.6730
974 4.1453 195(14) 186.6182 186.6182
975 4.1473 180(13) 186.5634 186.5634
976 4.1493 187(14) 186.5086 186.5086
977 4.1513 185(14) 186.4538 186.4538
978 4.1533 186(14) 186.3991 186.3991
979 4.1553 187(14) 186.3444 186.3444
980 4.1573 184(14) 186.2897 186.2897
981 4.1593 184(14) 186.2350 186.2350
982 4.1613 186(14) 186.1804 186.1804
983 4.1633 198(14) 186.1257 186.1257
984 4.1653 192(14) 186.0711 186.0711
985 4.1673 196(14) 186.0165 186.0165
986 4.1693 183(14) 185.9619 185.9619
987 4.1713 186(14) 185.9074 185.9074
988 4.1733 185(14) 185.8529 185.8529
989 4.1753 190(14) 185.7983 185.7983
990 4.1773 196(14) 185.7438 185.7438
991 4.1793 198(14) 185.6894 185.6894
992 4.1813 190(14) 185.6349 185.6349
993 4.1833 191(14) 185.5805 185.5805
994 4.1853 191(14) 185.5260 185.5260
995 4.1873 188(14) 185.4716 185.4716
996 4.1893 184(14) 185.4173 185.4173
997 4.1913 188(14) 185.3629 185.3629
998 4.1933 187(14) 185.3086 185.3086
999 4.1953 194(14) 185.2543 185.2543
1000 4.1973 197(14) 185.2000 185.2000
1001 4.1993 184(14) 185.1457 185.1457
1002 4.2013 186(14) 185.0914 185.0914
1003 4.2033 192(14) 185.0372 185.0372
1004 4.2053 195(14) 184.9830 184.9830
1005 4.2073 179(13) 184.9288 184.9288
1006 4.2093 193(14) 184.8746 184.8746
1007 4.2113 189(14) 184.8205 184.8205
1008 4.2133 185(14) 184.7663 184.7663
1009 4.2153 190(14) 184.7122 184.7122
1010 4.2173 190(14) 184.6581 184.6581
1011 4.2193 194(14) 184.6040 184.6040
1012 4.2213 183(14) 184.5500 184.5500
1013 4.2233 179(13) 184.4959 184.4959
1014 4.2253 185(14) 184.4605 184.4419
1015 4.2273 193(14) 184.4073 184.3879
1016 4.2293 187(14) 184.3542 184.3339
1017 4.2313 185(14) 184.3012 184.2800
1018 4.2333 183(14) 184.2483 184.2260
1019 4.2353 192(14) 184.1955 184.1721
1020 4.2373 194(14) 184.1427 184.1182
1021 4.2393 183(14) 184.0901 184.0643
1022 4.2413 178(13) 184.0376 184.0105
1023 4.2433 183(14) 183.9852 183.9566
1024 4.2453 185(14) 183.9330 183.9028
1025 4.2473 180(13) 183.8809 183.8490
1026 4.2493 177(13) 183.8290 183.7952
1027 4.2513 182(14) 183.7773 183.7415
1028 4.2533 176(13) 183.7257 183.6877
1029 4.2553 199(14) 183.6745 183.6340
1030 4.2573 177(13) 183.6235 183.5803
1031 4.2593 190(14) 183.5727 183.5266
1032 4.2613 191(14) 183.5224 183.4730
1033 4.2633 191(14) 183.4724 183.4193
1034 4.2653 187(14) 183.4228 183.3657
1035 4.2673 193(14) 183.3737 183.3121
1036 4.2693 190(14) 183.3252 183.2585
1037 4.2713 186(14) 183.2774 183.2050
1038 4.2733 184(14) 183.2304 183.1514
1039 4.2753 195(14) 183.1843 183.0979
1040 4.2773 188(14) 183.1393 183.0444
1041 4.2793 190(14) 183.0957 182.9909
1042 4.2813 198(14) 183.0536 182.9374
1043 4.2833 179(13) 183.0134 182.8840
1044 4.2853 188(14) 182.9755 182.8305
1045 4.2873 185(14) 182.9403 182.7771
1046 4.2893 181(13) 182.9084 182.7237
1047 4.2913 178(13) 182.8807 182.6704
1048 4.2933 174(13) 182.8588 182.6170
1049 4.2953 180(13) 182.8462 182.5637
1050 4.2973 176(13) 182.8497 182.5104
1051 4.2993 182(13) 182.8853 182.4571
1052 4.3013 188(14) 182.9892 182.4038
1053 4.3033 193(14) 183.2487 182.3506
1054 4.3053 187(14) 183.8605 182.2973
1055 4.3073 190(14) 185.1867 182.2441
1056 4.3093 191(14) 187.6677 182.1909
1057 4.3113 177(13) 191.3882 182.1377
1058 4.3133 190(14) 195.4590 182.0846
1059 4.3153 187(14) 197.9500 182.0314
1060 4.3173 192(14) 197.0502 181.9783
1061 4.3193 197(14) 193.0721 181.9252
1062 4.3213 185(14) 188.6214 181.8721
1063 4.3233 174(13) 185.6159 181.8191
1064 4.3253 182(13) 184.0573 181.7660
1065 4.3273 181(13) 183.2509 181.7130
1066 4.3293 180(13) 182.7436 181.6600
1067 4.3313 186(14) 182.3927 181.6070
1068 4.3333 170(13) 182.1537 181.5541
1069 4.3353 177(13) 181.9844 181.5011
1070 4.3373 191(14) 181.8502 181.4482
1071 4.3393 192(14) 181.7333 181.3953
1072 4.3413 176(13) 181.6279 181.3424
1073 4.3433 181(13) 181.5323 181.2896
1074 4.3453 177(13) 181.4449 181.2367
1075 4.3473 173(13) 181.3644 181.1839
1076 4.3493 183(14) 181.2892 181.1310
1077 4.3513 185(14) 181.2182 181.0782
1078 4.3533 187(14) 181.1502 181.0255
1079 4.3553 177(13) 181.0847 180.9727
1080 4.3573 173(13) 181.0211 180.9200
1081 4.3593 181(13) 181.0672 180.8673
1082 4.3613 186(14) 181.0111 180.8146
1083 4.3633 182(14) 180.9564 180.7619
1084 4.3653 182(13) 180.9028 180.7093
1085 4.3673 177(13) 180.8504 180.6566
1086 4.3693 178(13) 180.7991 180.6040
1087 4.3713 182(13) 180.7487 180.5514
1088 4.3733 185(14) 180.6993 180.4988
1089 4.3753 191(14) 180.6509 180.4463
1090 4.3773 190(14) 180.6034 180.3937
1091 4.3793 184(14) 180.5569 180.3412
1092 4.3813 180(13) 180.5114 180.2887
1093 4.3833 183(14) 180.4670 180.2362
1094 4.3853 188(14) 180.4237 180.1837
1095 4.3873 171(13) 180.3817 180.1313
1096 4.3893 180(13) 180.3410 180.0788
1097 4.3913 200(14) 180.3017 180.0264
1098 4.3933 189(14) 180.2641 179.9741
1099 4.3953 173(13) 180.2283 179.9217
1100 4.3973 181(13) 180.1945 179.8693
1101 4.3993 187(14) 180.1631 179.8170
1102 4.4013 187(14) 180.1342 179.7647
1103 4.4033 185(14) 180.1084 179.7124
1104 4.4053 193(14) 180.0860 179.6601
1105 4.4073 180(13) 180.0677 179.6078
1106 4.4093 183(14) 180.0542 179.5556
1107 4.4113 180(13) 180.0463 179.5034
1108 4.4133 180(13) 180.0275 179.4512
1109 4.4153 171(13) 180.0348 179.3990
1110 4.4173 171(13) 180.0517 179.3468
1111 4.4193 179(13) 180.0798 179.2947
1112 4.4213 180(13) 180.1215 179.2426
1113 4.4233 198(14) 180.1795 179.1905
1114 4.4253 191(14) 180.2573 179.1384
1115 4.4273 185(14) 180.3605 179.0863
1116 4.4293 179(13) 180.4994 179.0342
1117 4.4313 189(14) 180.6946 178.9822
1118 4.4333 188(14) 180.9896 178.9302
1119 4.4353 187(14) 182.7334 178.8782
1120 4.4373 198(14) 183.6964 178.8262
1121 4.4393 205(14) 185.6076 178.7743
1122 4.4413 192(14) 189.6385 178.7223
1123 4.4433 215(15) 197.9050 178.6704
1124 4.4453 232(15) 212.9169 178.6185
1125 4.4473 240(15) 235.1009 178.5666
1126 4.4493 235(15) 259.3245 178.5148
1127 4.4513 237(15) 274.5710 178.4629
1128 4.4533 234(15) 270.3670 178.4111
1129 4.4553 232(15) 248.0792 178.3593
1130 4.4573 231(15) 222.3364 178.3075
1131 4.4593 213(15) 204.5077 178.2558
1132 4.4613 210(14) 195.1156 178.2040
1133 4.4633 209(14) 190.3475 178.1523
1134 4.4653 217(15) 187.5338 178.1005
1135 4.4673 199(14) 185.7574 178.0488
1136 4.4693 179(13) 184.7169 177.9971
1137 4.4713 177(13) 184.1459 177.9455
1138 4.4733 187(14) 183.8257 177.8939
1139 4.4753 183(14) 183.6433 177.8422
1140 4.4773 194(14) 183.5613 177.7906
1141 4.4793 187(14) 183.5716 177.7391
1142 4.4813 176(13) 183.6717 177.6875
1143 4.4833 186(14) 183.8595 177.6360
1144 4.4853 189(14) 184.1347 177.5844
1145 4.4873 186(14) 184.5000 177.5329
1146 4.4893 184(14) 184.9619 177.4814
1147 4.4913 179(13) 185.5313 177.4299
1148 4.4933 190(14) 186.2234 177.3785
1149 4.4953 192(14) 187.0576 177.3270
1150 4.4973 182(13) 188.0583 177.2756
1151 4.4993 197(14) 189.2565 177.2242
1152 4.5013 199(14) 190.6951 177.1729
1153 4.5033 190(14) 192.4446 177.1215
1154 4.5053 202(14) 194.6349 177.0702
1155 4.5073 200(14) 197.5331 177.0188
1156 4.5093 210(14) 201.7012 176.9675
1157 4.5113 216(15) 208.3870 176.9162
1158 4.5133 227(15) 220.4966 176.8650
1159 4.5153 255(16) 244.8775 176.8137
1160 4.5173 320(18) 296.2492 176.7625
1161 4.5193 434(21) 399.8562 176.7112
1162 4.5213 624(25) 582.2971 176.6601
1163 4.5233 851(29) 840.9996 176.6089
1164 4.5253 1177(34) 1107.7679 176.5577
1165 4.5273 1413(38) 1254.8000 176.5066
1166 4.5293 1316(36) 1176.2482 176.4554
1167 4.5313 965(31) 910.6813 176.4044
1168 4.5333 634(25) 627.1603 176.3533
1169 4.5353 455(21) 437.1731 176.3022
1170 4.5373 369(19) 336.7101 176.2511
1171 4.5393 302(17) 283.6929 176.2001
1172 4.5413 250(16) 251.1891 176.1491
1173 4.5433 237(15) 230.1661 176.0981
1174 4.5453 219(15) 217.1900 176.0471
1175 4.5473 208(14) 209.1339 175.9962
1176 4.5493 193(14) 203.5231 175.9452
1177 4.5513 193(14) 199.0301 175.8943
1178 4.5533 179(13) 195.4328 175.8434
1179 4.5553 189(14) 192.4833 175.7925
1180 4.5573 192(14) 190.0896 175.7416
1181 4.5593 184(14) 188.1514 175.6908
1182 4.5613 180(13) 186.5723 175.6399
1183 4.5633 179(13) 185.2690 175.5891
1184 4.5653 179(13) 184.1773 175.5383
1185 4.5673 180(13) 183.2496 175.4876
1186 4.5693 188(14) 182.4513 175.4368
1187 4.5713 175(13) 181.7572 175.3861
1188 4.5733 177(13) 181.1485 175.3353
1189 4.5753 178(13) 180.6105 175.2846
1190 4.5773 187(14) 180.1317 175.2339
1191 4.5793 173(13) 179.7029 175.1833
1192 4.5813 182(13) 181.0199 175.1326
1193 4.5833 176(13) 180.7434 175.0820
1194 4.5853 170(13) 180.5031 175.0314
1195 4.5873 171(13) 180.2956 174.9808
1196 4.5893 179(13) 180.1176 174.9302
1197 4.5913 175(13) 179.9668 174.8797
1198 4.5933 190(14) 179.8413 174.8291
1199 4.5953 188(14) 179.7396 174.7786
1200 4.5973 174(13) 179.6608 174.7281
1201 4.5993 173(13) 179.6042 174.6776
1202 4.6013 181(13) 179.5695 174.6271
1203 4.6033 179(13) 179.5566 174.5767
1204 4.6053 179(13) 179.5660 174.5262
1205 4.6073 185(14) 179.5983 174.4758
1206 4.6093 181(13) 179.6545 174.4254
1207 4.6113 178(13) 179.7361 174.3750
1208 4.6133 185(14) 179.8448 174.3247
1209 4.6153 177(13) 179.9831 174.2743
1210 4.6173 186(14) 180.1541 174.2240
1211 4.6193 190(14) 180.3618 174.1737
1212 4.6213 198(14) 180.6124 174.1234
1213 4.6233 185(14) 180.9150 174.0731
1214 4.6253 186(14) 181.2858 174.0229
1215 4.6273 178(13) 180.5826 173.9726
1216 4.6293 181(13) 181.2635 173.9224
1217 4.6313 197(14) 182.2409 173.8722
1218 4.6333 194(14) 183.7480 173.8220
1219 4.6353 194(14) 186.0569 173.7719
1220 4.6373 192(14) 189.2276 173.7217
1221 4.6393 190(14) 192.7639 173.6716
1222 4.6413 200(14) 195.5779 173.6215
1223 4.6433 195(14) 196.6029 173.5714
1224 4.6453 192(14) 195.9120 173.5213
1225 4.6473 195(14) 194.9869 173.4712
1226 4.6493 191(14) 195.1445 173.4212
1227 4.6513 205(14) 196.6559 173.3712
1228 4.6533 193(14) 199.3826 173.3212
1229 4.6553 191(14) 203.4876 173.2712
1230 4.6573 204(14) 209.8188 173.2212
1231 4.6593 220(15) 220.4825 173.1712
1232 4.6613 232(15) 240.4625 173.1213
1233 4.6633 287(17) 281.2398 173.0714
1234 4.6653 349(19) 366.0906 173.0215
1235 4.6673 481(22) 530.8587 172.9716
1236 4.6693 763(28) 805.2821 172.9217
1237 4.6713 1158(34) 1167.8628 172.8719
1238 4.6733 1649(41) 1506.8359 172.8221
1239 4.6753 1835(43) 1648.8075 172.7723
1240 4.6773 1593(40) 1483.3206 172.7225
1241 4.6793 1104(33) 1106.9448 172.6727
1242 4.6813 711(27) 744.1241 172.6229
1243 4.6833 447(21) 509.9786 172.5732
1244 4.6853 324(18) 384.5855 172.5235
1245 4.6873 280(17) 315.3273 172.4738
1246 4.6893 243(16) 271.9731 172.4241
1247 4.6913 216(15) 244.2517 172.3744
1248 4.6933 208(14) 227.3245 172.3247
1249 4.6953 194(14) 216.7503 172.2751
1250 4.6973 192(14) 209.3204 172.2255
1251 4.6993 193(14) 203.4816 172.1759
1252 4.7013 192(14) 198.6927 172.1263
1253 4.7033 185(14) 194.7689 172.0767
1254 4.7053 182(13) 191.5821 172.0272
1255 4.7073 186(14) 188.9979 171.9777
1256 4.7093 181(13) 186.8882 171.9282
1257 4.7113 174(13) 185.1446 171.8787
1258 4.7133 177(13) 183.6826 171.8292
1259 4.7153 178(13) 182.4405 171.7797
1260 4.7173 181(13) 181.3721 171.7303
1261 4.7193 174(13) 180.4441 171.6808
1262 4.7213 181(13) 179.6310 171.6314
1263 4.7233 176(13) 178.9134 171.5821
1264 4.7253 172(13) 178.2759 171.5327
1265 4.7273 186(14) 177.7061 171.4833
1266 4.7293 170(13) 177.1940 171.4340
1267 4.7313 185(14) 176.7317 171.3847
1268 4.7333 177(13) 176.3121 171.3354
1269 4.7353 168(13) 175.9296 171.2861
1270 4.7373 178(13) 175.5794 171.2368
1271 4.7393 180(13) 175.2574 171.1876
1272 4.7413 179(13) 174.9488 171.1383
1273 4.7433 175(13) 174.6740 171.0891
1274 4.7453 183(14) 174.4187 171.0399
1275 4.7473 177(13) 174.1807 170.9907
1276 4.7493 163(13) 173.9581 170.9416
1277 4.7513 173(13) 173.7492 170.8924
1278 4.7533 181(13) 173.5526 170.8433
1279 4.7553 171(13) 173.3671 170.7942
1280 4.7573 170(13) 173.1918 170.7451
1281 4.7593 178(13) 173.0255 170.6960
1282 4.7613 172(13) 174.6111 170.6469
1283 4.7633 178(13) 174.5340 170.5979
1284 4.7653 161(13) 174.4686 170.5489
1285 4.7673 171(13) 174.4145 170.4999
1286 4.7693 169(13) 174.3717 170.4509
1287 4.7713 178(13) 174.3404 170.4019
1288 4.7733 179(13) 174.3205 170.3529
1289 4.7753 174(13) 172.6788 170.3040
1290 4.7773 167(13) 172.7473 170.2551
1291 4.7793 187(14) 172.8249 170.2062
1292 4.7813 169(13) 172.9122 170.1573
1293 4.7833 173(13) 173.1388 170.1084
1294 4.7853 181(13) 173.2545 170.0596
1295 4.7873 164(13) 173.3839 170.0107
1296 4.7893 172(13) 173.5288 169.9619
1297 4.7913 161(13) 173.6908 169.9131
1298 4.7933 180(13) 173.8721 169.8643
1299 4.7953 186(14) 174.0752 169.8155
1300 4.7973 174(13) 174.3027 169.7668
1301 4.7993 169(13) 174.5580 169.7181
1302 4.8013 177(13) 174.8448 169.6693
1303 4.8033 180(13) 175.1678 169.6207
1304 4.8053 183(14) 175.5324 169.5720
1305 4.8073 178(13) 175.9448 169.5233
1306 4.8093 179(13) 176.4129 169.4747
1307 4.8113 165(13) 176.9457 169.4260
1308 4.8133 191(14) 177.5545 169.3774
1309 4.8153 185(14) 178.2529 169.3288
1310 4.8173 189(14) 179.0574 169.2802
1311 4.8193 184(14) 179.9886 169.2317
1312 4.8213 186(14) 181.0704 169.1831
1313 4.8233 181(13) 182.3315 169.1346
1314 4.8253 178(13) 183.8067 169.0861
1315 4.8273 176(13) 185.5388 169.0376
1316 4.8293 186(14) 187.5850 168.9891
1317 4.8313 179(13) 190.0346 168.9406
1318 4.8333 188(14) 193.0437 168.8922
1319 4.8353 201(14) 196.9190 168.8438
1320 4.8373 197(14) 202.2825 168.7953
1321 4.8393 211(15) 210.4735 168.7470
1322 4.8413 227(15) 224.5183 168.6986
1323 4.8433 248(16) 251.4157 168.6502
1324 4.8453 289(17) 306.4456 168.6019
1325 4.8473 371(19) 417.5209 168.5536
1326 4.8493 528(23) 620.4348 168.5052
1327 4.8513 870(29) 931.4617 168.4570
1328 4.8533 1413(38) 1301.5293 168.4087
1329 4.8553 1813(43) 1596.1378 168.3605
1330 4.8573 1888(43) 1651.7124 168.3122
1331 4.8593 1508(39) 1411.6924 168.2640
1332 4.8613 1000(32) 1024.4082 168.2158
1333 4.8633 644(25) 693.3854 168.1676
1334 4.8653 409(20) 489.1351 168.1194
1335 4.8673 323(18) 379.0563 168.0712
1336 4.8693 272(16) 318.8333 168.0231
1337 4.8713 241(16) 287.6047 167.9750
1338 4.8733 236(15) 279.4955 167.9269
1339 4.8753 242(16) 289.2338 167.8788
1340 4.8773 263(16) 306.2662 167.8307
1341 4.8793 286(17) 315.9543 167.7827
1342 4.8813 279(17) 306.2205 167.7346
1343 4.8833 241(16) 277.7260 167.6866
1344 4.8853 213(15) 244.9603 167.6386
1345 4.8873 197(14) 220.2177 167.5906
1346 4.8893 191(14) 205.0872 167.5426
1347 4.8913 172(13) 196.0421 167.4947
1348 4.8933 188(14) 190.0930 167.4467
1349 4.8953 172(13) 185.9324 167.3988
1350 4.8973 173(13) 183.0165 167.3509
1351 4.8993 162(13) 180.9304 167.3030
1352 4.9013 175(13) 179.3325 167.2551
1353 4.9033 172(13) 178.0195 167.2073
1354 4.9053 181(13) 176.8979 167.1595
1355 4.9073 173(13) 175.9275 167.1116
1356 4.9093 176(13) 175.0851 167.0638
1357 4.9113 171(13) 174.3509 167.0160
1358 4.9133 167(13) 173.7071 166.9683
1359 4.9153 177(13) 173.1382 166.9205
1360 4.9173 164(13) 172.6313 166.8728
1361 4.9193 164(13) 172.1761 166.8251
1362 4.9213 160(13) 171.7644 166.7774
1363 4.9233 167(13) 171.3899 166.7297
1364 4.9253 173(13) 171.0475 166.6820
1365 4.9273 155(12) 170.7328 166.6343
1366 4.9293 170(13) 170.4425 166.5867
1367 4.9313 169(13) 170.1735 166.5391
1368 4.9333 160(13) 169.9234 166.4915
1369 4.9353 166(13) 169.6900 166.4439
1370 4.9373 159(13) 169.4716 166.3963
1371 4.9393 172(13) 169.2664 166.3488
1372 4.9413 164(13) 169.0733 166.3012
1373 4.9433 162(13) 168.8910 166.2537
1374 4.9453 164(13) 168.7184 166.2062
1375 4.9473 177(13) 168.5546 166.1587
1376 4.9493 167(13) 168.3987 166.1112
1377 4.9513 164(13) 168.2501 166.0638
1378 4.9533 175(13) 168.1082 166.0163
1379 4.9553 162(13) 167.9723 165.9689
1380 4.9573 170(13) 167.8420 165.9215
1381 4.9593 163(13) 166.0826 165.8741
1382 4.9613 166(13) 166.0249 165.8268
1383 4.9633 165(13) 165.9679 165.7794
1384 4.9653 168(13) 165.9117 165.7320
1385 4.9673 159(13) 165.8561 165.6847
1386 4.9693 175(13) 165.8011 165.6374
1387 4.9713 176(13) 165.7466 165.5901
1388 4.9733 160(13) 165.6925 165.5428
1389 4.9753 154(12) 165.6390 165.4956
1390 4.9773 161(13) 165.5858 165.4483
1391 4.9793 170(13) 165.5330 165.4011
1392 4.9813 176(13) 165.3539 165.3539
1393 4.9833 170(13) 165.3067 165.3067
1394 4.9853 161(13) 165.2595 165.2595
1395 4.9873 157(13) 165.2124 165.2124
1396 4.9893 165(13) 165.1652 165.1652
1397 4.9913 171(13) 165.1181 165.1181
1398 4.9933 159(13) 165.0710 165.0710
1399 4.9953 165(13) 165.0239 165.0239
1400 4.9973 159(13) 164.9768 164.9768
1401 4.9993 168(13) 164.9297 164.9297
1402 5.0013 167(13) 164.8827 164.8827
1403 5.0033 155(12) 164.8357 164.8357
1404 5.0053 176(13) 164.7886 164.7886
1405 5.0073 161(13) 164.7417 164.7417
1406 5.0093 171(13) 164.6947 164.6947
1407 5.0113 171(13) 164.6477 164.6477
1408 5.0133 164(13) 164.6008 164.6008
1409 5.0153 171(13) 164.5538 164.5538
1410 5.0173 163(13) 164.5069 164.5069
1411 5.0193 171(13) 164.4600 164.4600
1412 5.0213 166(13) 164.4131 164.4131
1413 5.0233 161(13) 164.3663 164.3663
1414 5.0253 172(13) 164.3194 164.3194
1415 5.0273 164(13) 164.2726 164.2726
1416 5.0293 163(13) 164.2258 164.2258
1417 5.0313 160(13) 164.1790 164.1790
1418 5.0333 172(13) 164.1322 164.1322
1419 5.0353 173(13) 164.0854 164.0854
1420 5.0373 172(13) 164.0386 164.0386
1421 5.0393 163(13) 163.9919 163.9919
1422 5.0413 160(13) 163.9452 163.9452
1423 5.0433 167(13) 163.8985 163.8985
1424 5.0453 170(13) 163.8518 163.8518
1425 5.0473 157(13) 163.8051 163.8051
1426 5.0493 155(12) 163.7585 163.7585
1427 5.0513 168(13) 163.7118 163.7118
1428 5.0533 169(13) 163.6652 163.6652
1429 5.0553 170(13) 163.6186 163.6186
1430 5.0573 165(13) 163.5720 163.5720
1431 5.0593 170(13) 163.5254 163.5254
1432 5.0613 175(13) 163.4788 163.4788
1433 5.0633 170(13) 163.4323 163.4323
1434 5.0653 168(13) 163.3858 163.3858
1435 5.0673 166(13) 163.3393 163.3393
1436 5.0693 165(13) 163.2928 163.2928
1437 5.0713 169(13) 165.9742 163.2463
1438 5.0733 159(13) 166.0381 163.1998
1439 5.0753 171(13) 166.1088 163.1534
1440 5.0773 168(13) 166.1870 163.1069
1441 5.0793 173(13) 166.2732 163.0605
1442 5.0813 166(13) 166.3681 163.0141
1443 5.0833 161(13) 166.4726 162.9677
1444 5.0853 147(12) 166.5875 162.9214
1445 5.0873 167(13) 166.7138 162.8750
1446 5.0893 169(13) 166.8526 162.8287
1447 5.0913 157(13) 167.0050 162.7824
1448 5.0933 156(12) 167.1726 162.7361
1449 5.0953 163(13) 167.3568 162.6898
1450 5.0973 166(13) 167.5595 162.6435
1451 5.0993 158(13) 167.7825 162.5972
1452 5.1013 167(13) 168.0282 162.5510
1453 5.1033 168(13) 168.2993 162.5048
1454 5.1053 172(13) 168.5986 162.4586
1455 5.1073 174(13) 168.9298 162.4124
1456 5.1093 162(13) 169.2968 162.3662
1457 5.1113 178(13) 169.7042 162.3200
1458 5.1133 169(13) 170.1574 162.2739
1459 5.1153 154(12) 170.6628 162.2278
1460 5.1173 163(13) 171.2279 162.1817
1461 5.1193 165(13) 171.8616 162.1356
1462 5.1213 169(13) 172.5747 162.0895
1463 5.1233 172(13) 173.3796 162.0434
1464 5.1253 169(13) 174.2918 161.9973
1465 5.1273 182(13) 175.3296 161.9513
1466 5.1293 167(13) 176.5154 161.9053
1467 5.1313 185(14) 177.8765 161.8593
1468 5.1333 182(14) 179.4460 161.8133
1469 5.1353 184(14) 181.2621 161.7673
1470 5.1373 182(13) 183.3726 161.7214
1471 5.1393 187(14) 185.8326 161.6754
1472 5.1413 192(14) 188.7141 161.6295
1473 5.1433 202(14) 192.1178 161.5836
1474 5.1453 212(15) 196.2050 161.5377
1475 5.1473 218(15) 201.2669 161.4918
1476 5.1493 256(16) 207.8593 161.4460
1477 5.1513 296(17) 217.1165 161.4001
1478 5.1533 321(18) 231.4468 161.3543
1479 5.1553 404(20) 256.2511 161.3085
1480 5.1573 539(23) 303.7196 161.2627
1481 5.1593 706(27) 398.8486 161.2169
1482 5.1613 1007(32) 584.7070 161.1711
1483 5.1633 1335(37) 911.8518 161.1254
1484 5.1653 1624(40) 1396.7665 161.0797
1485 5.1673 1907(44) 1961.0822 161.0340
1486 5.1693 2206(47) 2410.0269 160.9882
1487 5.1713 2026(45) 2511.3665 160.9426
1488 5.1733 1729(42) 2176.5913 160.8969
1489 5.1753 1510(39) 1600.7604 160.8512
1490 5.1773 1214(35) 1077.2261 160.8056
1491 5.1793 1026(32) 730.1384 160.7600
1492 5.1813 824(29) 528.3149 160.7144
1493 5.1833 642(25) 408.1681 160.6687
1494 5.1853 488(22) 331.7188 160.6232
1495 5.1873 439(21) 283.2797 160.5776
1496 5.1893 356(19) 253.8307 160.5321
1497 5.1913 289(17) 235.6344 160.4865
1498 5.1933 258(16) 223.1684 160.4410
1499 5.1953 241(16) 213.5868 160.3955
1500 5.1973 225(15) 205.7799 160.3500
1501 5.1993 215(15) 199.3492 160.3046
1502 5.2013 205(14) 194.0813 160.2591
1503 5.2033 186(14) 189.7770 160.2137
1504 5.2053 177(13) 186.2496 160.1682
1505 5.2073 185(14) 183.3323 160.1228
1506 5.2093 178(13) 180.8916 160.0775
1507 5.2113 183(14) 178.8253 160.0321
1508 5.2133 181(13) 177.0572 159.9867
1509 5.2153 182(13) 175.5314 159.9414
1510 5.2173 188(14) 174.2050 159.8960
1511 5.2193 187(14) 173.0461 159.8507
1512 5.2213 184(14) 172.0293 159.8054
1513 5.2233 174(13) 171.1347 159.7601
1514 5.2253 172(13) 170.3467 159.7149
1515 5.2273 187(14) 169.6531 159.6696
1516 5.2293 192(14) 169.0442 159.6244
1517 5.2313 192(14) 168.5138 159.5791
1518 5.2333 179(13) 168.0592 159.5340
1519 5.2353 179(13) 167.6836 159.4888
1520 5.2373 170(13) 167.4015 159.4436
1521 5.2393 177(13) 167.2497 159.3984
1522 5.2413 177(13) 167.3159 159.3533
1523 5.2433 181(13) 167.8023 159.3082
1524 5.2453 174(13) 169.1491 159.2631
1525 5.2473 189(14) 172.1833 159.2180
1526 5.2493 183(14) 178.0834 159.1729
1527 5.2513 201(14) 187.7618 159.1278
1528 5.2533 234(15) 200.5536 159.0827
1529 5.2553 248(16) 213.0848 159.0377
1530 5.2573 249(16) 219.9182 158.9927
1531 5.2593 244(16) 216.7217 158.9477
1532 5.2613 241(16) 204.7523 158.9027
1533 5.2633 208(14) 191.7254 158.8577
1534 5.2653 200(14) 180.9816 158.8128
1535 5.2673 185(14) 174.3092 158.7678
1536 5.2693 176(13) 170.3480 158.7229
1537 5.2713 165(13) 167.8514 158.6780
1538 5.2733 166(13) 166.2169 158.6331
1539 5.2753 164(13) 162.5000 158.5882
1540 5.2773 168(13) 161.9389 158.5433
1541 5.2793 168(13) 161.5882 158.4985
1542 5.2813 164(13) 161.3444 158.4536
1543 5.2833 163(13) 161.1606 158.4088
1544 5.2853 158(13) 161.0196 158.3640
1545 5.2873 160(13) 160.9152 158.3192
1546 5.2893 168(13) 160.8431 158.2745
1547 5.2913 168(13) 160.7994 158.2297
1548 5.2933 164(13) 160.7804 158.1850
1549 5.2953 167(13) 160.7836 158.1402
1550 5.2973 175(13) 160.8070 158.0955
1551 5.2993 172(13) 160.8496 158.0508
1552 5.3013 164(13) 160.9111 158.0061
1553 5.3033 166(13) 160.9920 157.9615
1554 5.3053 165(13) 161.0930 157.9168
1555 5.3073 153(12) 161.2156 157.8722
1556 5.3093 168(13) 161.3618 157.8275
1557 5.3113 169(13) 161.5340 157.7829
1558 5.3133 159(13) 161.7352 157.7383
1559 5.3153 176(13) 161.9695 157.6937
1560 5.3173 163(13) 162.2415 157.6492
1561 5.3193 176(13) 162.5573 157.6046
1562 5.3213 154(12) 162.9236 157.5601
1563 5.3233 165(13) 163.3492 157.5156
1564 5.3253 156(12) 163.8445 157.4711
1565 5.3273 150(12) 164.4221 157.4266
1566 5.3293 167(13) 165.0971 157.3821
1567 5.3313 175(13) 165.8874 157.3377
1568 5.3333 163(13) 166.8151 157.2932
1569 5.3353 164(13) 167.9101 157.2488
1570 5.3373 152(12) 169.2160 157.2044
1571 5.3393 166(13) 170.8075 157.1600
1572 5.3413 167(13) 172.8207 157.1156
1573 5.3433 164(13) 175.5201 157.0712
1574 5.3453 171(13) 179.4473 157.0269
1575 5.3473 181(13) 185.7666 156.9825
1576 5.3493 192(14) 197.0664 156.9382
1577 5.3513 210(14) 218.9532 156.8939
1578 5.3533 232(15) 262.2071 156.8496
1579 5.3553 312(18) 343.1971 156.8054
1580 5.3573 415(20) 477.3737 156.7611
1581 5.3593 632(25) 662.2799 156.7168
1582 5.3613 922(30) 859.4283 156.6726
1583 5.3633 1187(34) 995.1137 156.6284
1584 5.3653 1268(36) 996.3090 156.5842
1585 5.3673 996(32) 853.2428 156.5400
1586 5.3693 659(26) 647.5216 156.4958
1587 5.3713 429(21) 471.5281 156.4517
1588 5.3733 298(17) 355.8891 156.4075
1589 5.3753 255(16) 286.9830 156.3634
1590 5.3773 208(14) 244.6963 156.3193
1591 5.3793 183(14) 217.5181 156.2752
1592 5.3813 177(13) 200.3443 156.2311
1593 5.3833 183(14) 189.8878 156.1871
1594 5.3853 177(13) 183.3761 156.1430
1595 5.3873 180(13) 178.8810 156.0990
1596 5.3893 163(13) 175.4149 156.0549
1597 5.3913 158(13) 172.5827 156.0109
1598 5.3933 169(13) 170.2389 155.9670
1599 5.3953 160(13) 168.3050 155.9230
1600 5.3973 162(13) 166.7119 155.8790
1601 5.3993 163(13) 165.3948 155.8351
1602 5.4013 163(13) 164.2955 155.7911
1603 5.4033 164(13) 163.3674 155.7472
1604 5.4053 157(13) 162.5741 155.7033
1605 5.4073 154(12) 161.8881 155.6594
1606 5.4093 160(13) 161.2890 155.6156
1607 5.4113 149(12) 160.7611 155.5717
1608 5.4133 159(13) 160.2926 155.5278
1609 5.4153 151(12) 159.8742 155.4840
1610 5.4173 147(12) 159.4980 155.4402
1611 5.4193 143(12) 159.1581 155.3964
1612 5.4213 155(12) 158.8494 155.3526
1613 5.4233 154(12) 158.5675 155.3089
1614 5.4253 164(13) 158.3091 155.2651
1615 5.4273 154(12) 158.0712 155.2214
1616 5.4293 156(13) 157.8512 155.1776
1617 5.4313 149(12) 157.6471 155.1339
1618 5.4333 153(12) 157.4570 155.0902
1619 5.4353 158(13) 157.2792 155.0466
1620 5.4373 156(12) 157.1125 155.0029
1621 5.4393 154(12) 156.9557 154.9592
1622 5.4413 163(13) 156.8078 154.9156
1623 5.4433 159(13) 156.6678 154.8720
1624 5.4453 158(13) 156.5350 154.8284
1625 5.4473 151(12) 156.4087 154.7848
1626 5.4493 156(12) 156.2883 154.7412
1627 5.4513 151(12) 156.1732 154.6976
1628 5.4533 153(12) 156.0629 154.6541
1629 5.4553 161(13) 155.9571 154.6106
1630 5.4573 167(13) 155.8553 154.5670
1631 5.4593 156(12) 155.7573 154.5235
1632 5.4613 140(12) 155.6626 154.4801
1633 5.4633 144(12) 155.5711 154.4366
1634 5.4653 164(13) 155.4824 154.3931
1635 5.4673 159(13) 155.3964 154.3497
1636 5.4693 150(12) 155.3129 154.3062
1637 5.4713 157(13) 154.2628 154.2628
1638 5.4733 155(12) 154.2194 154.2194
1639 5.4753 156(12) 154.1760 154.1760
1640 5.4773 160(13) 154.1327 154.1327
1641 5.4793 154(12) 154.0893 154.0893
1642 5.4813 153(12) 154.0460 154.0460
1643 5.4833 162(13) 154.0026 154.0026
1644 5.4853 145(12) 153.9593 153.9593
1645 5.4873 153(12) 153.9160 153.9160
1646 5.4893 159(13) 153.8727 153.8727
1647 5.4913 143(12) 153.8295 153.8295
1648 5.4933 146(12) 153.7862 153.7862
1649 5.4953 150(12) 153.7430 153.7430
1650 5.4973 154(12) 153.6998 153.6998
1651 5.4993 153(12) 153.6566 153.6566
1652 5.5013 151(12) 153.6134 153.6134
1653 5.5033 148(12) 153.5702 153.5702
1654 5.5053 161(13) 153.5270 153.5270
1655 5.5073 152(12) 153.4838 153.4838
1656 5.5093 165(13) 153.4407 153.4407
1657 5.5113 153(12) 153.3976 153.3976
1658 5.5133 164(13) 153.3545 153.3545
1659 5.5153 162(13) 153.3114 153.3114
1660 5.5173 168(13) 153.2683 153.2683
1661 5.5193 154(12) 153.2252 153.2252
1662 5.5213 164(13) 153.1822 153.1822
1663 5.5233 155(12) 153.1391 153.1391
1664 5.5253 158(13) 153.0961 153.0961
1665 5.5273 152(12) 153.0531 153.0531
1666 5.5293 148(12) 153.0101 153.0101
1667 5.5313 149(12) 152.9671 152.9671
1668 5.5333 157(13) 152.9242 152.9242
1669 5.5353 154(12) 152.8812 152.8812
1670 5.5373 167(13) 152.8383 152.8383
1671 5.5393 149(12) 152.7954 152.7954
1672 5.5413 163(13) 152.7525 152.7525
1673 5.5433 156(12) 152.7096 152.7096
1674 5.5453 158(13) 152.6667 152.6667
1675 5.5473 162(13) 152.6238 152.6238
1676 5.5493 151(12) 152.5810 152.5810
1677 5.5513 159(13) 152.5381 152.5381
1678 5.5533 162(13) 152.4953 152.4953
1679 5.5553 150(12) 152.4525 152.4525
1680 5.5573 158(13) 152.4097 152.4097
1681 5.5593 163(13) 152.3669 152.3669
1682 5.5613 156(12) 152.3242 152.3242
1683 5.5633 148(12) 152.2814 152.2814
1684 5.5653 162(13) 152.2387 152.2387
1685 5.5673 156(12) 152.1960 152.1960
1686 5.5693 157(13) 152.1533 152.1533
1687 5.5713 154(12) 152.1106 152.1106
1688 5.5733 154(12) 152.0679 152.0679
1689 5.5753 146(12) 152.0253 152.0253
1690 5.5773 156(13) 151.9826 151.9826
1691 5.5793 158(13) 151.9400 151.9400
1692 5.5813 147(12) 151.8973 151.8973
1693 5.5833 147(12) 151.8547 151.8547
1694 5.5853 155(12) 151.8121 151.8121
1695 5.5873 145(12) 151.7696 151.7696
1696 5.5893 164(13) 151.7270 151.7270
1697 5.5913 155(12) 151.6845 151.6845
1698 5.5933 165(13) 151.8537 151.6419
1699 5.5953 161(13) 151.8193 151.5994
1700 5.5973 164(13) 151.7854 151.5569
1701 5.5993 166(13) 151.7521 151.5144
1702 5.6013 153(12) 151.7193 151.4719
1703 5.6033 164(13) 151.6872 151.4295
1704 5.6053 151(12) 151.7526 151.3870
1705 5.6073 169(13) 151.7256 151.3446
1706 5.6093 162(13) 151.6996 151.3022
1707 5.6113 177(13) 151.6747 151.2598
1708 5.6133 159(13) 151.6510 151.2174
1709 5.6153 159(13) 151.6286 151.1750
1710 5.6173 153(12) 151.6076 151.1326
1711 5.6193 154(12) 151.5882 151.0903
1712 5.6213 158(13) 151.5706 151.0479
1713 5.6233 155(12) 151.5548 151.0056
1714 5.6253 158(13) 151.5411 150.9633
1715 5.6273 160(13) 151.5297 150.9210
1716 5.6293 155(12) 151.5209 150.8788
1717 5.6313 160(13) 151.5150 150.8365
1718 5.6333 155(12) 151.5123 150.7943
1719 5.6353 148(12) 151.5131 150.7520
1720 5.6373 146(12) 151.5179 150.7098
1721 5.6393 165(13) 151.5273 150.6676
1722 5.6413 161(13) 151.5418 150.6254
1723 5.6433 153(12) 151.5621 150.5832
1724 5.6453 156(12) 151.5891 150.5410
1725 5.6473 146(12) 151.6236 150.4989
1726 5.6493 148(12) 151.6670 150.4568
1727 5.6513 147(12) 151.7205 150.4146
1728 5.6533 151(12) 151.7858 150.3725
1729 5.6553 154(12) 151.8648 150.3304
1730 5.6573 142(12) 151.9599 150.2884
1731 5.6593 153(12) 152.0740 150.2463
1732 5.6613 136(12) 152.2103 150.2042
1733 5.6633 155(12) 152.3728 150.1622
1734 5.6653 169(13) 152.5664 150.1202
1735 5.6673 159(13) 152.7974 150.0782
1736 5.6693 160(13) 153.0749 150.0362
1737 5.6713 153(12) 153.4133 149.9942
1738 5.6733 146(12) 153.8372 149.9522
1739 5.6753 151(12) 154.3919 149.9103
1740 5.6773 151(12) 155.1655 149.8683
1741 5.6793 146(12) 156.3391 149.8264
1742 5.6813 153(12) 158.3024 149.7845
1743 5.6833 161(13) 161.8855 149.7426
1744 5.6853 162(13) 168.7159 149.7007
1745 5.6873 173(13) 181.4729 149.6588
1746 5.6893 178(13) 203.3360 149.6170
1747 5.6913 210(14) 235.8430 149.5751
1748 5.6933 254(16) 275.6190 149.5333
1749 5.6953 308(18) 312.5936 149.4915
1750 5.6973 359(19) 332.9111 149.4497
1751 5.6993 339(18) 327.3980 149.4079
1752 5.7013 289(17) 302.0010 149.3661
1753 5.7033 266(16) 275.3578 149.3244
1754 5.7053 244(16) 260.7096 149.2826
1755 5.7073 249(16) 257.2010 149.2409
1756 5.7093 259(16) 255.5762 149.1992
1757 5.7113 246(16) 246.7422 149.1575
1758 5.7133 219(15) 228.4270 149.1158
1759 5.7153 202(14) 206.5437 149.0741
1760 5.7173 181(13) 188.1390 149.0325
1761 5.7193 172(13) 175.5309 148.9908
1762 5.7213 151(12) 167.5307 148.9492
1763 5.7233 167(13) 162.3442 148.9076
1764 5.7253 159(13) 158.8441 148.8660
1765 5.7273 155(12) 156.4828 148.8244
1766 5.7293 152(12) 154.9133 148.7828
1767 5.7313 148(12) 153.8484 148.7412
1768 5.7333 156(13) 153.0734 148.6997
1769 5.7353 150(12) 152.4624 148.6582
1770 5.7373 147(12) 151.9547 148.6166
1771 5.7393 145(12) 151.5235 148.5751
1772 5.7413 143(12) 151.1543 148.5336
1773 5.7433 154(12) 150.8365 148.4921
1774 5.7453 153(12) 150.5612 148.4507
1775 5.7473 145(12) 150.3204 148.4092
1776 5.7493 148(12) 150.1077 148.3678
1777 5.7513 151(12) 149.9178 148.3264
1778 5.7533 146(12) 149.7468 148.2849
1779 5.7553 152(12) 149.5912 148.2435
1780 5.7573 147(12) 149.4488 148.2022
1781 5.7593 143(12) 149.3175 148.1608
1782 5.7613 144(12) 149.1957 148.1194
1783 5.7633 144(12) 149.0821 148.0781
1784 5.7653 149(12) 148.9756 148.0368
1785 5.7673 142(12) 148.8752 147.9955
1786 5.7693 148(12) 148.7803 147.9541
1787 5.7713 149(12) 148.6902 147.9129
1788 5.7733 153(12) 148.6044 147.8716
1789 5.7753 164(13) 148.5223 147.8303
1790 5.7773 149(12) 148.4435 147.7891
1791 5.7793 147(12) 148.3678 147.7479
1792 5.7813 136(12) 148.2947 147.7066
1793 5.7833 149(12) 148.2240 147.6654
1794 5.7853 151(12) 148.1556 147.6243
1795 5.7873 154(12) 148.0891 147.5831
1796 5.7893 152(12) 148.0243 147.5419
1797 5.7913 141(12) 147.9612 147.5007
1798 5.7933 153(12) 147.8996 147.4596
1799 5.7953 161(13) 147.8394 147.4185
1800 5.7973 140(12) 147.7804 147.3774
1801 5.7993 140(12) 147.7225 147.3363
1802 5.8013 139(12) 147.6656 147.2952
1803 5.8033 146(12) 147.6098 147.2541
1804 5.8053 139(12) 147.5548 147.2131
1805 5.8073 147(12) 147.5006 147.1720
1806 5.8093 136(12) 147.2484 147.1310
1807 5.8113 146(12) 147.2027 147.0900
1808 5.8133 138(12) 147.1573 147.0490
1809 5.8153 143(12) 147.1122 147.0080
1810 5.8173 146(12) 147.0673 146.9671
1811 5.8193 145(12) 147.0226 146.9261
1812 5.8213 150(12) 146.8851 146.8851
1813 5.8233 137(12) 146.8442 146.8442
1814 5.8253 146(12) 146.8033 146.8033
1815 5.8273 141(12) 146.7624 146.7624
1816 5.8293 152(12) 146.7215 146.7215
1817 5.8313 159(13) 146.6806 146.6806
1818 5.8333 161(13) 146.6398 146.6398
1819 5.8353 146(12) 146.5989 146.5989
1820 5.8373 140(12) 146.5581 146.5581
1821 5.8393 145(12) 146.5173 146.5173
1822 5.8413 152(12) 147.0508 146.4764
1823 5.8433 143(12) 147.0315 146.4356
1824 5.8453 147(12) 147.0135 146.3949
1825 5.8473 145(12) 146.9968 146.3541
1826 5.8493 147(12) 146.9815 146.3133
1827 5.8513 158(13) 146.9678 146.2726
1828 5.8533 134(12) 146.9558 146.2319
1829 5.8553 139(12) 146.9456 146.1912
1830 5.8573 148(12) 146.9374 146.1505
1831 5.8593 149(12) 146.9314 146.1098
1832 5.8613 152(12) 146.9276 146.0691
1833 5.8633 149(12) 146.9265 146.0284
1834 5.8653 147(12) 146.9281 145.9878
1835 5.8673 141(12) 146.9328 145.9472
1836 5.8693 153(12) 146.9409 145.9066
1837 5.8713 151(12) 146.9527 145.8659
1838 5.8733 145(12) 146.9686 145.8253
1839 5.8753 139(12) 146.9890 145.7848
1840 5.8773 149(12) 147.0143 145.7442
1841 5.8793 152(12) 147.0453 145.7037
1842 5.8813 150(12) 147.0825 145.6631
1843 5.8833 151(12) 147.1266 145.6226
1844 5.8853 148(12) 147.1785 145.5821
1845 5.8873 154(12) 147.2391 145.5416
1846 5.8893 153(12) 147.3097 145.5011
1847 5.8913 155(12) 147.3914 145.4606
1848 5.8933 150(12) 147.4860 145.4202
1849 5.8953 143(12) 147.5951 145.3797
1850 5.8973 151(12) 147.7210 145.3393
1851 5.8993 152(12) 147.8663 145.2988
1852 5.9013 147(12) 148.0339 145.2585
1853 5.9033 138(12) 148.2276 145.2181
1854 5.9053 149(12) 148.4517 145.1777
1855 5.9073 140(12) 148.7114 145.1373
1856 5.9093 143(12) 149.0130 145.0970
1857 5.9113 151(12) 149.3636 145.0566
1858 5.9133 152(12) 149.7721 145.0163
1859 5.9153 149(12) 150.2491 144.9760
1860 5.9173 148(12) 150.8086 144.9357
1861 5.9193 160(13) 151.4706 144.8954
1862 5.9213 150(12) 152.2671 144.8552
1863 5.9233 159(13) 153.2523 144.8149
1864 5.9253 169(13) 154.5246 144.7746
1865 5.9273 167(13) 156.2735 144.7344
1866 5.9293 180(13) 158.8791 144.6942
1867 5.9313 181(13) 163.1428 144.6540
1868 5.9333 201(14) 170.7514 144.6138
1869 5.9353 238(15) 185.0437 144.5736
1870 5.9373 270(16) 211.7639 144.5335
1871 5.9393 318(18) 258.5648 144.4933
1872 5.9413 409(20) 331.4014 144.4532
1873 5.9433 490(22) 427.4819 144.4130
1874 5.9453 574(24) 528.6765 144.3729
1875 5.9473 590(24) 602.6764 144.3329
1876 5.9493 560(24) 616.1407 144.2928
1877 5.9513 554(24) 559.6047 144.2527
1878 5.9533 480(22) 459.9454 144.2126
1879 5.9553 402(20) 361.9420 144.1726
1880 5.9573 372(19) 288.7612 144.1326
1881 5.9593 309(18) 240.7438 144.0925
1882 5.9613 283(17) 209.9789 144.0526
1883 5.9633 225(15) 189.8441 144.0125
1884 5.9653 211(15) 176.7196 143.9725
1885 5.9673 184(14) 168.4762 143.9326
1886 5.9693 182(13) 163.4135 143.8926
1887 5.9713 175(13) 160.1802 143.8527
1888 5.9733 168(13) 157.9043 143.8128
1889 5.9753 160(13) 156.1417 143.7729
1890 5.9773 164(13) 154.7066 143.7330
1891 5.9793 150(12) 153.5231 143.6931
1892 5.9813 160(13) 152.5510 143.6532
1893 5.9833 158(13) 151.7571 143.6134
1894 5.9853 148(12) 151.1112 143.5735
1895 5.9873 154(12) 150.5866 143.5337
1896 5.9893 147(12) 150.1611 143.4939
1897 5.9913 141(12) 149.8176 143.4540
1898 5.9933 153(12) 149.5431 143.4142
1899 5.9953 144(12) 149.3279 143.3745
1900 5.9973 152(12) 149.1650 143.3347
1901 5.9993 162(13) 149.0496 143.2950
1902 6.0013 138(12) 148.9783 143.2552
1903 6.0033 145(12) 148.9492 143.2155
1904 6.0053 146(12) 148.9615 143.1758
1905 6.0073 153(12) 152.1532 143.1361
1906 6.0093 146(12) 152.3638 143.0964
1907 6.0113 157(13) 152.6255 143.0567
1908 6.0133 148(12) 152.9420 143.0170
1909 6.0153 146(12) 153.3184 142.9774
1910 6.0173 147(12) 153.7606 142.9378
1911 6.0193 151(12) 154.2767 142.8981
1912 6.0213 142(12) 154.8762 142.8585
1913 6.0233 147(12) 155.5704 142.8189
1914 6.0253 142(12) 156.3734 142.7793
1915 6.0273 148(12) 157.3020 142.7398
1916 6.0293 160(13) 158.3781 142.7002
1917 6.0313 154(12) 159.6313 142.6607
1918 6.0333 139(12) 161.1059 142.6211
1919 6.0353 160(13) 162.8761 142.5816
1920 6.0373 167(13) 165.0707 142.5421
1921 6.0393 165(13) 167.9283 142.5026
1922 6.0413 186(14) 171.9155 142.4632
1923 6.0433 183(14) 177.9849 142.4237
1924 6.0453 193(14) 188.1399 142.3842
1925 6.0473 224(15) 206.4417 142.3448
1926 6.0493 261(16) 240.3669 142.3054
1927 6.0513 319(18) 301.3062 142.2660
1928 6.0533 403(20) 401.6077 142.2265
1929 6.0553 598(24) 545.8233 142.1872
1930 6.0573 727(27) 718.3997 142.1478
1931 6.0593 814(29) 877.6451 142.1084
1932 6.0613 828(29) 966.0068 142.0691
1933 6.0633 809(28) 938.7661 142.0297
1934 6.0653 701(26) 806.0359 141.9904
1935 6.0673 587(24) 632.4656 141.9511
1936 6.0693 474(22) 481.2511 141.9118
1937 6.0713 387(20) 374.3652 141.8725
1938 6.0733 321(18) 305.2232 141.8333
1939 6.0753 276(17) 260.8636 141.7940
1940 6.0773 239(15) 232.3194 141.7548
1941 6.0793 216(15) 214.7085 141.7155
1942 6.0813 208(14) 204.7874 141.6763
1943 6.0833 187(14) 199.8875 141.6371
1944 6.0853 185(14) 198.0197 141.5979
1945 6.0873 186(14) 198.0342 141.5587
1946 6.0893 185(14) 199.4766 141.5196
1947 6.0913 184(14) 202.8060 141.4804
1948 6.0933 184(14) 207.4528 141.4413
1949 6.0953 186(14) 214.6154 141.4021
1950 6.0973 212(15) 225.8524 141.3630
1951 6.0993 223(15) 244.4147 141.3239
1952 6.1013 253(16) 277.1564 141.2848
1953 6.1033 296(17) 337.8810 141.2458
1954 6.1053 362(19) 451.4770 141.2067
1955 6.1073 494(22) 654.8156 141.1676
1956 6.1093 720(27) 985.6794 141.1286
1957 6.1113 1149(34) 1454.1710 141.0896
1958 6.1133 1864(43) 2004.5343 141.0506
1959 6.1153 2745(52) 2500.3540 141.0116
1960 6.1173 3351(58) 2760.0117 140.9726
1961 6.1193 3203(57) 2651.4878 140.9336
1962 6.1213 2337(48) 2214.3809 140.8947
1963 6.1233 1571(40) 1658.2791 140.8557
1964 6.1253 1004(32) 1176.9550 140.8168
1965 6.1273 659(26) 835.0669 140.7778
1966 6.1293 464(22) 610.7667 140.7389
1967 6.1313 359(19) 463.8954 140.7001
1968 6.1333 292(17) 366.5783 140.6611
1969 6.1353 260(16) 303.4092 140.6223
1970 6.1373 233(15) 263.8809 140.5834
1971 6.1393 217(15) 239.3161 140.5446
1972 6.1413 201(14) 223.1414 140.5058
1973 6.1433 194(14) 211.3691 140.4669
1974 6.1453 181(13) 202.0476 140.4281
1975 6.1473 166(13) 194.3595 140.3893
1976 6.1493 155(12) 187.9593 140.3505
1977 6.1513 171(13) 182.6423 140.3118
1978 6.1533 159(13) 178.2351 140.2730
1979 6.1553 156(12) 174.5808 140.2343
1980 6.1573 154(12) 171.5420 140.1955
1981 6.1593 165(13) 169.0052 140.1568
1982 6.1613 162(13) 166.8829 140.1181
1983 6.1633 160(13) 165.1067 140.0794
1984 6.1653 167(13) 163.6276 140.0408
1985 6.1673 147(12) 162.4090 140.0021
1986 6.1693 151(12) 161.4261 139.9634
1987 6.1713 164(13) 160.6638 139.9248
1988 6.1733 150(12) 160.1178 139.8862
1989 6.1753 162(13) 159.7987 139.8476
1990 6.1773 157(13) 158.7945 139.8090
1991 6.1793 167(13) 159.1021 139.7704
1992 6.1813 160(13) 159.8971 139.7318
1993 6.1833 165(13) 161.5012 139.6932
1994 6.1853 159(13) 164.5908 139.6547
1995 6.1873 168(13) 170.5560 139.6161
1996 6.1893 191(14) 182.0605 139.5776
1997 6.1913 226(15) 203.4891 139.5391
1998 6.1933 274(17) 240.4702 139.5006
1999 6.1953 332(18) 297.2138 139.4621
2000 6.1973 410(20) 371.5931 139.4236
2001 6.1993 511(23) 450.6836 139.3852
2002 6.2013 530(23) 511.3844 139.3467
2003 6.2033 527(23) 528.7288 139.3083
2004 6.2053 483(22) 491.9908 139.2699
2005 6.2073 422(21) 418.0302 139.2314
2006 6.2093 357(19) 339.0471 139.1931
2007 6.2113 289(17) 276.0585 139.1547
2008 6.2133 238(15) 232.6257 139.1163
2009 6.2153 208(14) 204.0275 139.0779
2010 6.2173 203(14) 185.0196 139.0396
2011 6.2193 180(13) 172.3596 139.0012
2012 6.2213 155(12) 164.1566 138.9629
2013 6.2233 151(12) 158.9868 138.9246
2014 6.2253 150(12) 155.6729 138.8863
2015 6.2273 152(12) 153.3773 138.8480
2016 6.2293 151(12) 151.6235 138.8097
2017 6.2313 147(12) 150.1860 138.7715
2018 6.2333 155(12) 145.8952 138.7332
2019 6.2353 155(12) 144.9659 138.6950
2020 6.2373 150(12) 144.1832 138.6568
2021 6.2393 144(12) 143.5229 138.6186
2022 6.2413 145(12) 142.9625 138.5804
2023 6.2433 144(12) 142.4834 138.5422
2024 6.2453 149(12) 142.0694 138.5040
2025 6.2473 139(12) 141.7080 138.4659
2026 6.2493 146(12) 141.3895 138.4277
2027 6.2513 151(12) 141.1062 138.3896
2028 6.2533 154(12) 140.8522 138.3515
2029 6.2553 145(12) 140.6231 138.3133
2030 6.2573 156(13) 140.4150 138.2753
2031 6.2593 149(12) 140.2249 138.2372
2032 6.2613 142(12) 140.0505 138.1991
2033 6.2633 141(12) 139.8895 138.1610
2034 6.2653 148(12) 139.7404 138.1230
2035 6.2673 136(12) 139.6015 138.0849
2036 6.2693 140(12) 139.4719 138.0469
2037 6.2713 141(12) 139.3502 138.0089
2038 6.2733 142(12) 139.2357 137.9709
2039 6.2753 140(12) 139.1276 137.9330
2040 6.2773 141(12) 139.0251 137.8950
2041 6.2793 136(12) 138.9277 137.8570
2042 6.2813 139(12) 138.8349 137.8191
2043 6.2833 143(12) 138.7462 137.7811
2044 6.2853 140(12) 138.6612 137.7432
2045 6.2873 132(12) 138.5796 137.7053
2046 6.2893 144(12) 138.5010 137.6674
2047 6.2913 144(12) 138.4252 137.6295
2048 6.2933 144(12) 138.3519 137.5916
2049 6.2953 140(12) 138.2810 137.5538
2050 6.2973 143(12) 138.2122 137.5159
2051 6.2993 141(12) 138.1453 137.4781
2052 6.3013 126(11) 138.0803 137.4403
2053 6.3033 138(12) 138.0168 137.4025
2054 6.3053 137(12) 137.9549 137.3647
2055 6.3073 138(12) 137.8944 137.3269
2056 6.3093 151(12) 137.8351 137.2891
2057 6.3113 145(12) 137.7771 137.2514
2058 6.3133 137(12) 137.7203 137.2136
2059 6.3153 142(12) 137.6644 137.1759
2060 6.3173 130(11) 137.6095 137.1382
2061 6.3193 134(12) 137.5555 137.1004
2062 6.3213 136(12) 137.0628 137.0628
2063 6.3233 140(12) 137.0251 137.0251
2064 6.3253 137(12) 136.9874 136.9874
2065 6.3273 143(12) 136.9497 136.9497
2066 6.3293 142(12) 136.9121 136.9121
2067 6.3313 143(12) 136.8745 136.8745
2068 6.3333 136(12) 136.8368 136.8368
2069 6.3353 145(12) 136.7992 136.7992
2070 6.3373 138(12) 136.7616 136.7616
2071 6.3393 137(12) 136.7240 136.7240
2072 6.3413 144(12) 136.6865 136.6865
2073 6.3433 136(12) 136.6489 136.6489
2074 6.3453 135(12) 136.6114 136.6114
2075 6.3473 138(12) 136.5738 136.5738
2076 6.3493 136(12) 136.5363 136.5363
2077 6.3513 138(12) 136.4988 136.4988
2078 6.3533 137(12) 136.4613 136.4613
2079 6.3553 130(11) 136.4238 136.4238
2080 6.3573 139(12) 136.3863 136.3863
2081 6.3593 133(12) 136.3488 136.3488
2082 6.3613 135(12) 136.3114 136.3114
2083 6.3633 135(12) 136.2740 136.2740
2084 6.3653 137(12) 136.2365 136.2365
2085 6.3673 140(12) 136.1991 136.1991
2086 6.3693 134(12) 136.1617 136.1617
2087 6.3713 128(11) 136.1243 136.1243
2088 6.3733 140(12) 136.0870 136.0870
2089 6.3753 133(12) 136.0496 136.0496
2090 6.3773 130(11) 136.0123 136.0123
2091 6.3793 143(12) 135.9749 135.9749
2092 6.3813 140(12) 135.9376 135.9376
2093 6.3833 142(12) 135.9003 135.9003
2094 6.3853 150(12) 135.8630 135.8630
2095 6.3873 148(12) 135.8257 135.8257
2096 6.3893 136(12) 135.7884 135.7884
2097 6.3913 139(12) 135.7511 135.7511
2098 6.3933 134(12) 135.7139 135.7139
2099 6.3953 142(12) 135.6766 135.6766
2100 6.3973 141(12) 135.6394 135.6394
2101 6.3993 141(12) 135.6022 135.6022
2102 6.4013 147(12) 135.5650 135.5650
2103 6.4033 158(13) 135.5278 135.5278
2104 6.4053 136(12) 135.4906 135.4906
2105 6.4073 141(12) 135.4535 135.4535
2106 6.4093 131(11) 135.4163 135.4163
2107 6.4113 131(11) 135.3792 135.3792
2108 6.4133 140(12) 135.3420 135.3420
2109 6.4153 134(12) 135.3049 135.3049
2110 6.4173 146(12) 135.2678 135.2678
2111 6.4193 133(12) 135.2307 135.2307
2112 6.4213 144(12) 135.1936 135.1936
2113 6.4233 132(11) 135.1566 135.1566
2114 6.4253 138(12) 135.1195 135.1195
2115 6.4273 143(12) 135.0824 135.0824
2116 6.4293 140(12) 135.0454 135.0454
2117 6.4313 131(11) 135.0084 135.0084
2118 6.4333 135(12) 134.9714 134.9714
2119 6.4353 128(11) 134.9344 134.9344
2120 6.4373 142(12) 134.8974 134.8974
2121 6.4393 136(12) 134.8604 134.8604
2122 6.4413 136(12) 134.8235 134.8235
2123 6.4433 135(12) 134.7865 134.7865
2124 6.4453 130(11) 134.7496 134.7496
2125 6.4473 133(12) 134.7127 134.7127
2126 6.4493 137(12) 134.6758 134.6758
2127 6.4513 135(12) 134.6389 134.6389
2128 6.4533 146(12) 134.6020 134.6020
2129 6.4553 146(12) 134.5651 134.5651
2130 6.4573 132(11) 134.5282 134.5282
2131 6.4593 140(12) 134.4914 134.4914
2132 6.4613 142(12) 134.4545 134.4545
2133 6.4633 138(12) 134.4177 134.4177
2134 6.4653 143(12) 134.3809 134.3809
2135 6.4673 144(12) 134.3441 134.3441
2136 6.4693 143(12) 134.3073 134.3073
2137 6.4713 146(12) 134.2705 134.2705
2138 6.4733 134(12) 134.2338 134.2338
2139 6.4753 135(12) 134.1970 134.1970
2140 6.4773 140(12) 134.1603 134.1603
2141 6.4793 139(12) 134.1235 134.1235
2142 6.4813 147(12) 134.0868 134.0868
2143 6.4833 141(12) 134.0501 134.0501
2144 6.4853 146(12) 134.0134 134.0134
2145 6.4873 130(11) 133.9767 133.9767
2146 6.4893 136(12) 133.9401 133.9401
2147 6.4913 144(12) 136.8154 133.9034
2148 6.4933 137(12) 136.8788 133.8668
2149 6.4953 142(12) 136.9474 133.8301
2150 6.4973 154(12) 137.0216 133.7935
2151 6.4993 145(12) 137.1018 133.7569
2152 6.5013 146(12) 137.1885 133.7203
2153 6.5033 151(12) 137.2822 133.6837
2154 6.5053 153(12) 137.3833 133.6471
2155 6.5073 150(12) 137.4925 133.6106
2156 6.5093 129(11) 137.6104 133.5740
2157 6.5113 148(12) 137.7376 133.5375
2158 6.5133 159(13) 137.8751 133.5010
2159 6.5153 153(12) 138.0235 133.4645
2160 6.5173 143(12) 138.1840 133.4280
2161 6.5193 155(12) 138.3575 133.3915
2162 6.5213 142(12) 138.5451 133.3550
2163 6.5233 158(13) 138.7483 133.3185
2164 6.5253 140(12) 138.9683 133.2821
2165 6.5273 149(12) 139.2070 133.2457
2166 6.5293 146(12) 139.4662 133.2092
2167 6.5313 157(13) 139.7478 133.1728
2168 6.5333 150(12) 140.0541 133.1364
2169 6.5353 145(12) 140.3879 133.1000
2170 6.5373 140(12) 140.7521 133.0636
2171 6.5393 140(12) 141.1502 133.0273
2172 6.5413 140(12) 141.5860 132.9909
2173 6.5433 137(12) 142.0642 132.9545
2174 6.5453 158(13) 142.5896 132.9182
2175 6.5473 158(13) 143.1684 132.8819
2176 6.5493 143(12) 143.8075 132.8456
2177 6.5513 155(12) 144.5149 132.8093
2178 6.5533 148(12) 145.3002 132.7730
2179 6.5553 152(12) 146.1748 132.7367
2180 6.5573 152(12) 147.2301 132.7005
2181 6.5593 153(12) 148.3265 132.6642
2182 6.5613 142(12) 149.5586 132.6280
2183 6.5633 160(13) 150.9479 132.5918
2184 6.5653 157(13) 152.5196 132.5556
2185 6.5673 167(13) 154.3031 132.5194
2186 6.5693 154(12) 156.3344 132.4831
2187 6.5713 158(13) 158.6538 132.4470
2188 6.5733 160(13) 161.3155 132.4108
2189 6.5753 141(12) 164.3912 132.3747
2190 6.5773 165(13) 167.9857 132.3385
2191 6.5793 168(13) 172.2632 132.3024
2192 6.5813 177(13) 177.5000 132.2663
2193 6.5833 181(13) 184.1710 132.2302
2194 6.5853 196(14) 193.1629 132.1941
2195 6.5873 212(15) 206.1885 132.1580
2196 6.5893 234(15) 226.6645 132.1219
2197 6.5913 281(17) 261.3637 132.0859
2198 6.5933 350(19) 322.9538 132.0498
2199 6.5953 454(21) 432.5469 132.0138
2200 6.5973 639(25) 618.6951 131.9778
2201 6.5993 879(30) 908.4639 131.9418
2202 6.6013 1288(36) 1306.8947 131.9057
2203 6.6033 1757(42) 1772.7375 131.8698
2204 6.6053 2138(46) 2208.3743 131.8338
2205 6.6073 2322(48) 2480.4536 131.7978
2206 6.6093 2238(47) 2476.0300 131.7619
2207 6.6113 2017(45) 2185.2617 131.7259
2208 6.6133 1657(41) 1734.7588 131.6900
2209 6.6153 1269(36) 1288.2108 131.6541
2210 6.6173 963(31) 935.1208 131.6182
2211 6.6193 709(27) 685.5657 131.5823
2212 6.6213 539(23) 515.4333 131.5464
2213 6.6233 417(20) 399.7174 131.5105
2214 6.6253 331(18) 321.7172 131.4747
2215 6.6273 275(17) 270.7625 131.4388
2216 6.6293 233(15) 238.4976 131.4030
2217 6.6313 202(14) 217.9851 131.3672
2218 6.6333 200(14) 204.1628 131.3314
2219 6.6353 180(13) 193.9634 131.2956
2220 6.6373 171(13) 185.8473 131.2598
2221 6.6393 169(13) 179.1203 131.2240
2222 6.6413 161(13) 173.4738 131.1883
2223 6.6433 159(13) 168.7318 131.1525
2224 6.6453 148(12) 164.7569 131.1168
2225 6.6473 161(13) 161.4260 131.0810
2226 6.6493 146(12) 158.6378 131.0453
2227 6.6513 144(12) 156.3079 131.0096
2228 6.6533 138(12) 154.3813 130.9739
2229 6.6553 157(13) 152.8404 130.9382
2230 6.6573 150(12) 151.7239 130.9026
2231 6.6593 139(12) 151.1669 130.8669
2232 6.6613 148(12) 151.4641 130.8313
2233 6.6633 146(12) 153.1354 130.7956
2234 6.6653 147(12) 156.9177 130.7600
2235 6.6673 153(12) 163.5498 130.7244
2236 6.6693 152(12) 173.2632 130.6888
2237 6.6713 164(13) 185.1299 130.6532
2238 6.6733 192(14) 196.7159 130.6177
2239 6.6753 202(14) 204.4990 130.5821
2240 6.6773 209(14) 205.1963 130.5465
2241 6.6793 195(14) 197.9280 130.5110
2242 6.6813 193(14) 185.5422 130.4755
2243 6.6833 171(13) 172.5422 130.4400
2244 6.6853 152(12) 161.8145 130.4045
2245 6.6873 146(12) 153.9736 130.3690
2246 6.6893 138(12) 148.5066 130.3335
2247 6.6913 135(12) 144.6615 130.2980
2248 6.6933 147(12) 141.9597 130.2626
2249 6.6953 137(12) 140.0833 130.2271
2250 6.6973 125(11) 138.7918 130.1917
2251 6.6993 137(12) 137.8836 130.1563
2252 6.7013 130(11) 137.2049 130.1208
2253 6.7033 145(12) 136.6579 130.0854
2254 6.7053 132(12) 136.1895 130.0500
2255 6.7073 135(12) 135.7748 130.0147
2256 6.7093 130(11) 135.4023 129.9793
2257 6.7113 131(11) 135.0658 129.9440
2258 6.7133 137(12) 134.7602 129.9086
2259 6.7153 141(12) 134.4816 129.8733
2260 6.7173 134(12) 134.2262 129.8380
2261 6.7193 135(12) 133.9906 129.8027
2262 6.7213 141(12) 133.7720 129.7674
2263 6.7233 129(11) 133.5682 129.7321
2264 6.7253 133(12) 133.3773 129.6968
2265 6.7273 135(12) 133.1976 129.6616
2266 6.7293 131(11) 133.0282 129.6263
2267 6.7313 134(12) 130.0526 129.5911
2268 6.7333 124(11) 129.9909 129.5559
2269 6.7353 139(12) 129.9323 129.5207
2270 6.7373 131(11) 129.8765 129.4855
2271 6.7393 133(12) 129.8232 129.4503
2272 6.7413 136(12) 129.7721 129.4151
2273 6.7433 133(12) 129.7231 129.3799
2274 6.7453 133(12) 129.6760 129.3448
2275 6.7473 126(11) 129.6306 129.3096
2276 6.7493 134(12) 129.5869 129.2745
2277 6.7513 127(11) 129.5448 129.2394
2278 6.7533 120(11) 129.5042 129.2043
2279 6.7553 126(11) 129.4651 129.1692
2280 6.7573 125(11) 129.4276 129.1341
2281 6.7593 122(11) 129.3916 129.0990
2282 6.7613 130(11) 129.3572 129.0640
2283 6.7633 123(11) 129.3245 129.0289
2284 6.7653 132(11) 129.2936 128.9939
2285 6.7673 127(11) 129.2647 128.9588
2286 6.7693 121(11) 129.2400 128.9238
2287 6.7713 129(11) 129.2158 128.8888
2288 6.7733 136(12) 129.1943 128.8538
2289 6.7753 131(11) 129.1759 128.8189
2290 6.7773 129(11) 129.1615 128.7839
2291 6.7793 126(11) 129.1518 128.7489
2292 6.7813 125(11) 129.1488 128.7140
2293 6.7833 131(11) 129.1551 128.6790
2294 6.7853 131(11) 129.1761 128.6441
2295 6.7873 123(11) 129.2215 128.6092
2296 6.7893 119(11) 129.3106 128.5743
2297 6.7913 128(11) 129.4811 128.5394
2298 6.7933 134(12) 129.8041 128.5045
2299 6.7953 143(12) 130.4009 128.4697
2300 6.7973 142(12) 131.4489 128.4348
2301 6.7993 136(12) 133.1456 128.4000
2302 6.8013 136(12) 135.5285 128.3652
2303 6.8033 145(12) 138.6315 128.3304
2304 6.8053 154(12) 141.8957 128.2955
2305 6.8073 148(12) 144.5116 128.2607
2306 6.8093 143(12) 145.5921 128.2260
2307 6.8113 150(12) 144.6230 128.1912
2308 6.8133 132(12) 141.9506 128.1564
2309 6.8153 143(12) 138.6361 128.1217
2310 6.8173 136(12) 135.6562 128.0869
2311 6.8193 134(12) 133.3555 128.0522
2312 6.8213 137(12) 131.7220 128.0175
2313 6.8233 137(12) 130.5835 127.9828
2314 6.8253 125(11) 129.7901 127.9481
2315 6.8273 131(11) 129.2434 127.9134
2316 6.8293 125(11) 128.8750 127.8788
2317 6.8313 130(11) 128.6283 127.8441
2318 6.8333 134(12) 128.4576 127.8094
2319 6.8353 126(11) 128.3300 127.7748
2320 6.8373 126(11) 128.2262 127.7402
2321 6.8393 124(11) 128.1364 127.7056
2322 6.8413 126(11) 128.0562 127.6710
2323 6.8433 128(11) 127.9836 127.6364
2324 6.8453 124(11) 127.9173 127.6018
2325 6.8473 126(11) 127.8565 127.5672
2326 6.8493 123(11) 127.8002 127.5327
2327 6.8513 122(11) 127.7479 127.4981
2328 6.8533 127(11) 127.6988 127.4636
2329 6.8553 121(11) 127.6525 127.4291
2330 6.8573 125(11) 127.6086 127.3946
2331 6.8593 123(11) 127.5668 127.3601
2332 6.8613 125(11) 127.5269 127.3256
2333 6.8633 130(11) 127.4890 127.2911
2334 6.8653 127(11) 127.4531 127.2567
2335 6.8673 131(11) 127.4194 127.2222
2336 6.8693 120(11) 127.3888 127.1878
2337 6.8713 121(11) 127.3625 127.1533
2338 6.8733 126(11) 127.3437 127.1189
2339 6.8753 124(11) 127.3378 127.0845
2340 6.8773 120(11) 127.3548 127.0501
2341 6.8793 128(11) 127.4100 127.0158
2342 6.8813 128(11) 127.5225 126.9814
2343 6.8833 129(11) 127.7075 126.9470
2344 6.8853 123(11) 127.9635 126.9127
2345 6.8873 122(11) 128.2578 126.8783
2346 6.8893 121(11) 128.5239 126.8440
2347 6.8913 122(11) 128.6757 126.8097
2348 6.8933 115(11) 128.6431 126.7754
2349 6.8953 118(11) 128.4212 126.7411
2350 6.8973 119(11) 128.0898 126.7068
2351 6.8993 120(11) 127.7548 126.6725
2352 6.9013 123(11) 127.4785 126.6383
2353 6.9033 127(11) 127.2733 126.6040
2354 6.9053 118(11) 127.1267 126.5698
2355 6.9073 130(11) 127.0231 126.5356
2356 6.9093 122(11) 126.9517 126.5014
2357 6.9113 122(11) 126.9058 126.4672
2358 6.9133 127(11) 127.3643 126.4330
2359 6.9153 130(11) 127.3746 126.3988
2360 6.9173 134(12) 127.4070 126.3646
2361 6.9193 132(11) 127.4693 126.3305
2362 6.9213 122(11) 127.5809 126.2963
2363 6.9233 125(11) 127.7810 126.2622
2364 6.9253 123(11) 128.1423 126.2281
2365 6.9273 121(11) 128.7871 126.1940
2366 6.9293 125(11) 129.8885 126.1599
2367 6.9313 123(11) 131.6326 126.1258
2368 6.9333 125(11) 134.1184 126.0917
2369 6.9353 122(11) 137.2148 126.0576
2370 6.9373 131(11) 140.4365 126.0236
2371 6.9393 139(12) 143.0525 125.9895
2372 6.9413 125(11) 144.1980 125.9555
2373 6.9433 133(12) 143.3677 125.9215
2374 6.9453 129(11) 140.8517 125.8875
2375 6.9473 137(12) 137.6379 125.8535
2376 6.9493 130(11) 134.6648 125.8195
2377 6.9513 132(11) 132.3486 125.7855
2378 6.9533 125(11) 130.6924 125.7516
2379 6.9553 130(11) 129.5425 125.7176
2380 6.9573 126(11) 128.7527 125.6837
2381 6.9593 127(11) 128.2232 125.6497
2382 6.9613 127(11) 127.8848 125.6158
2383 6.9633 112(11) 127.6811 125.5819
2384 6.9653 124(11) 127.5655 125.5480
2385 6.9673 121(11) 127.5040 125.5141
2386 6.9693 126(11) 127.4755 125.4803
2387 6.9713 121(11) 127.4695 125.4464
2388 6.9733 122(11) 127.4813 125.4126
2389 6.9753 124(11) 127.5096 125.3787
2390 6.9773 127(11) 127.5541 125.3449
2391 6.9793 128(11) 127.6150 125.3111
2392 6.9813 122(11) 127.6930 125.2773
2393 6.9833 125(11) 127.7889 125.2435
2394 6.9853 127(11) 127.9042 125.2097
2395 6.9873 121(11) 128.0405 125.1759
2396 6.9893 125(11) 128.2003 125.1421
2397 6.9913 127(11) 128.3862 125.1084
2398 6.9933 120(11) 128.6017 125.0747
2399 6.9953 131(11) 128.8509 125.0409
2400 6.9973 126(11) 129.1387 125.0072
2401 6.9993 115(11) 129.4711 124.9735
2402 7.0013 117(11) 129.8554 124.9398
2403 7.0033 127(11) 130.3018 124.9061
2404 7.0053 132(11) 130.8234 124.8725
2405 7.0073 117(11) 131.4412 124.8388
2406 7.0093 125(11) 132.1877 124.8052
2407 7.0113 129(11) 133.1172 124.7715
2408 7.0133 120(11) 134.3243 124.7379
2409 7.0153 127(11) 135.9837 124.7043
2410 7.0173 144(12) 138.4240 124.6707
2411 7.0193 133(12) 142.2836 124.6371
2412 7.0213 135(12) 148.7613 124.6035
2413 7.0233 150(12) 159.9696 124.5699
2414 7.0253 150(12) 179.1774 124.5364
2415 7.0273 174(13) 210.5417 124.5028
2416 7.0293 207(14) 257.7336 124.4693
2417 7.0313 265(16) 321.1401 124.4358
2418 7.0333 330(18) 394.9674 124.4023
2419 7.0353 432(21) 465.8915 124.3688
2420 7.0373 532(23) 515.3820 124.3353
2421 7.0393 580(24) 526.1499 124.3018
2422 7.0413 558(24) 492.3741 124.2683
2423 7.0433 438(21) 427.0184 124.2349
2424 7.0453 341(18) 353.6784 124.2014
2425 7.0473 249(16) 289.8276 124.1680
2426 7.0493 209(14) 241.3035 124.1345
2427 7.0513 198(14) 206.6408 124.1011
2428 7.0533 168(13) 182.3475 124.0677
2429 7.0553 153(12) 165.4366 124.0343
2430 7.0573 153(12) 153.9379 124.0010
2431 7.0593 145(12) 146.3672 123.9676
2432 7.0613 140(12) 141.4899 123.9342
2433 7.0633 132(11) 138.3005 123.9009
2434 7.0653 130(11) 136.0852 123.8676
2435 7.0673 135(12) 134.4140 123.8342
2436 7.0693 131(11) 133.0633 123.8009
2437 7.0713 133(12) 131.9100 123.7676
2438 7.0733 127(11) 130.9456 123.7343
2439 7.0753 125(11) 130.1210 123.7010
2440 7.0773 134(12) 129.4148 123.6678
2441 7.0793 121(11) 128.8083 123.6345
2442 7.0813 126(11) 128.2847 123.6013
2443 7.0833 121(11) 127.8298 123.5680
2444 7.0853 125(11) 127.4315 123.5348
2445 7.0873 126(11) 127.0798 123.5016
2446 7.0893 135(12) 126.7670 123.4684
2447 7.0913 119(11) 126.4867 123.4352
2448 7.0933 125(11) 126.2341 123.4020
2449 7.0953 131(11) 126.0049 123.3688
2450 7.0973 127(11) 125.7961 123.3357
2451 7.0993 115(11) 125.6050 123.3025
2452 7.1013 121(11) 125.4293 123.2694
2453 7.1033 122(11) 125.2671 123.2363
2454 7.1053 125(11) 127.2892 123.2032
2455 7.1073 123(11) 127.2174 123.1701
2456 7.1093 112(11) 127.1583 123.1370
2457 7.1113 113(11) 127.1112 123.1039
2458 7.1133 114(11) 127.0753 123.0708
2459 7.1153 126(11) 127.0503 123.0378
2460 7.1173 129(11) 127.0356 123.0047
2461 7.1193 112(11) 127.0311 122.9717
2462 7.1213 120(11) 127.0366 122.9387
2463 7.1233 125(11) 127.0520 122.9056
2464 7.1253 115(11) 127.0774 122.8726
2465 7.1273 133(12) 127.1128 122.8397
2466 7.1293 121(11) 127.1586 122.8067
2467 7.1313 128(11) 127.2149 122.7737
2468 7.1333 126(11) 127.2822 122.7407
2469 7.1353 127(11) 127.3611 122.7078
2470 7.1373 118(11) 127.4519 122.6749
2471 7.1393 122(11) 127.5555 122.6419
2472 7.1413 113(11) 127.6728 122.6090
2473 7.1433 126(11) 127.8046 122.5761
2474 7.1453 122(11) 127.9522 122.5432
2475 7.1473 118(11) 128.1172 122.5103
2476 7.1493 115(11) 128.3012 122.4775
2477 7.1513 120(11) 128.5069 122.4446
2478 7.1533 124(11) 128.7378 122.4118
2479 7.1553 130(11) 128.9992 122.3789
2480 7.1573 126(11) 129.2997 122.3461
2481 7.1593 118(11) 129.6544 122.3133
2482 7.1613 121(11) 130.0905 122.2805
2483 7.1633 112(11) 130.6556 122.2477
2484 7.1653 120(11) 131.4301 122.2149
2485 7.1673 130(11) 132.5322 122.1821
2486 7.1693 129(11) 133.6288 122.1494
2487 7.1713 125(11) 135.8006 122.1166
2488 7.1733 126(11) 138.5558 122.0839
2489 7.1753 132(11) 141.6794 122.0511
2490 7.1773 147(12) 144.7208 122.0184
2491 7.1793 133(12) 147.0738 121.9857
2492 7.1813 131(11) 148.1911 121.9530
2493 7.1833 130(11) 147.9125 121.9204
2494 7.1853 127(11) 146.6896 121.8877
2495 7.1873 126(11) 145.3095 121.8550
2496 7.1893 138(12) 144.3723 121.8224
2497 7.1913 133(12) 144.1035 121.7897
2498 7.1933 137(12) 144.4920 121.7571
2499 7.1953 133(12) 145.4587 121.7245
2500 7.1973 129(11) 146.9472 121.6919
2501 7.1993 127(11) 148.9466 121.6593
2502 7.2013 141(12) 151.4925 121.6267
2503 7.2033 148(12) 154.6726 121.5941
2504 7.2053 144(12) 158.6694 121.5616
2505 7.2073 149(12) 163.8284 121.5290
2506 7.2093 164(13) 170.8001 121.4965
2507 7.2113 172(13) 180.8209 121.4639
2508 7.2133 190(14) 196.2608 121.4314
2509 7.2153 225(15) 221.5218 121.3989
2510 7.2173 273(17) 264.3887 121.3664
2511 7.2193 332(18) 337.1827 121.3339
2512 7.2213 425(21) 456.3947 121.3015
2513 7.2233 611(25) 638.5742 121.2690
2514 7.2253 847(29) 891.1105 121.2365
2515 7.2273 1171(34) 1200.2268 121.2041
2516 7.2293 1521(39) 1522.0452 121.1717
2517 7.2313 1864(43) 1786.8246 121.1392
2518 7.2333 2076(46) 1916.9102 121.1068
2519 7.2353 1944(44) 1861.2983 121.0744
2520 7.2373 1718(41) 1636.0881 121.0421
2521 7.2393 1394(37) 1324.8027 121.0097
2522 7.2413 1100(33) 1019.2448 120.9773
2523 7.2433 843(29) 768.9092 120.9449
2524 7.2453 605(25) 582.3284 120.9126
2525 7.2473 459(21) 448.6458 120.8803
2526 7.2493 354(19) 354.1064 120.8479
2527 7.2513 298(17) 288.2060 120.8156
2528 7.2533 248(16) 243.5092 120.7833
2529 7.2553 198(14) 214.1664 120.7510
2530 7.2573 173(13) 195.1495 120.7188
2531 7.2593 163(13) 182.5101 120.6865
2532 7.2613 157(13) 173.5451 120.6542
2533 7.2633 151(12) 166.6672 120.6220
2534 7.2653 138(12) 161.0591 120.5897
2535 7.2673 128(11) 156.3407 120.5575
2536 7.2693 142(12) 152.3206 120.5253
2537 7.2713 145(12) 148.8852 120.4931
2538 7.2733 131(11) 145.9464 120.4609
2539 7.2753 124(11) 143.4266 120.4287
2540 7.2773 127(11) 141.2569 120.3966
2541 7.2793 132(11) 139.3770 120.3644
2542 7.2813 126(11) 137.7385 120.3323
2543 7.2833 121(11) 136.2997 120.3001
2544 7.2853 130(11) 135.0277 120.2680
2545 7.2873 115(11) 133.8961 120.2359
2546 7.2893 135(12) 132.8838 120.2038
2547 7.2913 131(11) 131.9736 120.1717
2548 7.2933 119(11) 131.1512 120.1396
2549 7.2953 116(11) 130.4057 120.1075
2550 7.2973 125(11) 129.7272 120.0755
2551 7.2993 114(11) 129.1075 120.0434
2552 7.3013 119(11) 128.5396 120.0114
2553 7.3033 126(11) 128.0177 119.9793
2554 7.3053 130(11) 127.5365 119.9473
2555 7.3073 118(11) 127.0920 119.9153
2556 7.3093 132(11) 126.6801 119.8833
2557 7.3113 117(11) 126.2975 119.8513
2558 7.3133 123(11) 125.9246 119.8194
2559 7.3153 121(11) 125.5927 119.7874
2560 7.3173 117(11) 125.2823 119.7554
2561 7.3193 120(11) 124.9912 119.7235
2562 7.3213 119(11) 124.7181 119.6916
2563 7.3233 128(11) 124.4611 119.6596
2564 7.3253 129(11) 124.2189 119.6277
2565 7.3273 118(11) 123.9901 119.5958
2566 7.3293 125(11) 123.7738 119.5639
2567 7.3313 117(11) 123.5687 119.5321
2568 7.3333 117(11) 123.3741 119.5002
2569 7.3353 120(11) 123.1892 119.4683
2570 7.3373 120(11) 123.0132 119.4365
2571 7.3393 122(11) 122.8454 119.4047
2572 7.3413 119(11) 122.6852 119.3728
2573 7.3433 122(11) 122.5320 119.3410
2574 7.3453 120(11) 122.3854 119.3092
2575 7.3473 113(11) 122.2448 119.2774
2576 7.3493 118(11) 122.1100 119.2457
2577 7.3513 118(11) 121.9804 119.2139
2578 7.3533 119(11) 121.8558 119.1821
2579 7.3553 113(11) 121.7357 119.1504
2580 7.3573 120(11) 121.6199 119.1186
2581 7.3593 117(11) 121.5082 119.0869
2582 7.3613 116(11) 121.4003 119.0552
2583 7.3633 117(11) 121.2960 119.0235
2584 7.3653 113(11) 121.1949 118.9918
2585 7.3673 115(11) 118.9601 118.9601
2586 7.3693 112(11) 118.9284 118.9284
2587 7.3713 121(11) 118.8968 118.8968
2588 7.3733 121(11) 118.8651 118.8651
2589 7.3753 110(11) 118.8335 118.8335
2590 7.3773 114(11) 118.8018 118.8018
2591 7.3793 126(11) 118.7702 118.7702
2592 7.3813 120(11) 118.7386 118.7386
2593 7.3833 117(11) 118.7070 118.7070
2594 7.3853 115(11) 118.6754 118.6754
2595 7.3873 125(11) 118.6439 118.6439
2596 7.3893 116(11) 118.6123 118.6123
2597 7.3913 122(11) 118.5807 118.5807
2598 7.3933 115(11) 118.5492 118.5492
2599 7.3953 117(11) 118.5177 118.5177
2600 7.3973 119(11) 118.4861 118.4861
2601 7.3993 121(11) 118.4546 118.4546
2602 7.4013 119(11) 118.4231 118.4231
2603 7.4033 121(11) 118.3916 118.3916
2604 7.4053 111(11) 118.3602 118.3602
2605 7.4073 120(11) 118.3287 118.3287
2606 7.4093 121(11) 118.2972 118.2972
2607 7.4113 110(10) 118.2658 118.2658
2608 7.4133 121(11) 118.2343 118.2343
2609 7.4153 110(10) 118.2029 118.2029
2610 7.4173 119(11) 118.1715 118.1715
2611 7.4193 114(11) 118.1401 118.1401
2612 7.4213 112(11) 118.1087 118.1087
2613 7.4233 109(10) 118.0773 118.0773
2614 7.4253 117(11) 118.0459 118.0459
2615 7.4273 115(11) 118.0146 118.0146
2616 7.4293 119(11) 117.9832 117.9832
2617 7.4313 116(11) 117.9519 117.9519
2618 7.4333 120(11) 117.9206 117.9206
2619 7.4353 114(11) 117.8893 117.8893
2620 7.4373 109(10) 117.8579 117.8579
2621 7.4393 115(11) 117.8266 117.8266
2622 7.4413 118(11) 117.7953 117.7953
2623 7.4433 114(11) 117.7641 117.7641
2624 7.4453 118(11) 117.7328 117.7328
2625 7.4473 119(11) 117.7016 117.7016
2626 7.4493 114(11) 117.6703 117.6703
2627 7.4513 113(11) 117.6391 117.6391
2628 7.4533 121(11) 117.6079 117.6079
2629 7.4553 118(11) 117.5766 117.5766
2630 7.4573 114(11) 117.5454 117.5454
2631 7.4593 112(11) 117.5143 117.5143
2632 7.4613 109(10) 117.4831 117.4831
2633 7.4633 116(11) 117.4519 117.4519
2634 7.4653 105(10) 117.4207 117.4207
2635 7.4673 115(11) 117.3896 117.3896
2636 7.4693 113(11) 117.3585 117.3585
2637 7.4713 111(11) 117.3273 117.3273
2638 7.4733 123(11) 117.2962 117.2962
2639 7.4753 107(10) 117.2651 117.2651
2640 7.4773 115(11) 117.2340 117.2340
2641 7.4793 124(11) 117.2029 117.2029
2642 7.4813 117(11) 117.1719 117.1719
2643 7.4833 119(11) 117.1408 117.1408
2644 7.4853 113(11) 117.1097 117.1097
2645 7.4873 115(11) 117.0787 117.0787
2646 7.4893 116(11) 117.0477 117.0477
2647 7.4913 120(11) 117.0166 117.0166
2648 7.4933 117(11) 116.9856 116.9856
2649 7.4953 117(11) 116.9546 116.9546
2650 7.4973 107(10) 116.9237 116.9237
2651 7.4993 124(11) 116.8927 116.8927
2652 7.5013 108(10) 116.8617 116.8617
2653 7.5033 119(11) 116.8307 116.8307
2654 7.5053 115(11) 116.7998 116.7998
2655 7.5073 116(11) 116.7689 116.7689
2656 7.5093 114(11) 116.7379 116.7379
2657 7.5113 120(11) 116.7070 116.7070
2658 7.5133 107(10) 116.6761 116.6761
2659 7.5153 112(11) 116.6452 116.6452
2660 7.5173 117(11) 116.6143 116.6143
2661 7.5193 125(11) 116.5835 116.5835
2662 7.5213 125(11) 116.5526 116.5526
2663 7.5233 121(11) 116.5218 116.5218
2664 7.5253 122(11) 116.4909 116.4909
2665 7.5273 113(11) 116.4601 116.4601
2666 7.5293 110(10) 116.4293 116.4293
2667 7.5313 120(11) 116.3985 116.3985
2668 7.5333 113(11) 116.3677 116.3677
2669 7.5353 115(11) 116.3369 116.3369
2670 7.5373 113(11) 116.3061 116.3061
2671 7.5393 118(11) 116.2753 116.2753
2672 7.5413 115(11) 116.2446 116.2446
2673 7.5433 116(11) 116.2138 116.2138
2674 7.5453 109(10) 116.1831 116.1831
2675 7.5473 109(10) 116.1524 116.1524
2676 7.5493 113(11) 116.1217 116.1217
2677 7.5513 120(11) 116.0910 116.0910
2678 7.5533 109(10) 116.0603 116.0603
2679 7.5553 117(11) 116.0296 116.0296
2680 7.5573 125(11) 115.9989 115.9989
2681 7.5593 112(11) 115.9682 115.9682
2682 7.5613 117(11) 115.9376 115.9376
2683 7.5633 115(11) 115.9070 115.9070
2684 7.5653 114(11) 115.8763 115.8763
2685 7.5673 118(11) 115.8457 115.8457
2686 7.5693 120(11) 115.8151 115.8151
2687 7.5713 115(11) 115.7845 115.7845
2688 7.5733 114(11) 115.7539 115.7539
2689 7.5753 114(11) 115.7233 115.7233
2690 7.5773 107(10) 115.6928 115.6928
2691 7.5793 120(11) 115.6622 115.6622
2692 7.5813 119(11) 115.6317 115.6317
2693 7.5833 116(11) 115.6011 115.6011
2694 7.5853 112(11) 115.5706 115.5706
2695 7.5873 118(11) 115.5401 115.5401
2696 7.5893 108(10) 115.5096 115.5096
2697 7.5913 112(11) 115.4791 115.4791
2698 7.5933 110(10) 115.4486 115.4486
2699 7.5953 115(11) 115.4182 115.4182
2700 7.5973 115(11) 115.3877 115.3877
2701 7.5993 112(11) 115.3572 115.3572
2702 7.6013 115(11) 115.3268 115.3268
2703 7.6033 117(11) 115.2964 115.2964
2704 7.6053 108(10) 115.2660 115.2660
2705 7.6073 110(10) 115.2355 115.2355
2706 7.6093 111(11) 115.2051 115.2051
2707 7.6113 109(10) 115.1748 115.1748
2708 7.6133 110(10) 115.1444 115.1444
2709 7.6153 116(11) 115.1140 115.1140
2710 7.6173 110(10) 115.0837 115.0837
2711 7.6193 105(10) 115.1399 115.0533
2712 7.6213 113(11) 115.1121 115.0230
2713 7.6233 107(10) 115.1604 114.9927
2714 7.6253 118(11) 115.1351 114.9624
2715 7.6273 110(10) 115.1100 114.9321
2716 7.6293 111(11) 115.0851 114.9018
2717 7.6313 116(11) 115.0606 114.8715
2718 7.6333 109(10) 115.0362 114.8412
2719 7.6353 108(10) 115.0123 114.8109
2720 7.6373 114(11) 114.9886 114.7807
2721 7.6393 116(11) 114.9652 114.7505
2722 7.6413 110(10) 114.9422 114.7202
2723 7.6433 108(10) 114.9196 114.6900
2724 7.6453 121(11) 114.8974 114.6598
2725 7.6473 110(11) 114.8757 114.6296
2726 7.6493 105(10) 114.8544 114.5994
2727 7.6513 101(10) 114.8336 114.5692
2728 7.6533 111(11) 114.8133 114.5391
2729 7.6553 110(10) 114.7936 114.5089
2730 7.6573 121(11) 114.7746 114.4788
2731 7.6593 114(11) 114.7562 114.4486
2732 7.6613 111(11) 114.7385 114.4185
2733 7.6633 112(11) 114.7216 114.3884
2734 7.6653 108(10) 114.7056 114.3583
2735 7.6673 117(11) 114.6904 114.3282
2736 7.6693 110(10) 114.6763 114.2981
2737 7.6713 119(11) 114.6632 114.2681
2738 7.6733 119(11) 114.6514 114.2380
2739 7.6753 114(11) 114.6408 114.2079
2740 7.6773 123(11) 114.6316 114.1779
2741 7.6793 108(10) 114.6240 114.1479
2742 7.6813 105(10) 114.6181 114.1179
2743 7.6833 112(11) 114.6141 114.0878
2744 7.6853 118(11) 114.6122 114.0578
2745 7.6873 107(10) 114.6126 114.0278
2746 7.6893 127(11) 114.6155 113.9979
2747 7.6913 110(11) 114.6213 113.9679
2748 7.6933 109(10) 114.6303 113.9380
2749 7.6953 125(11) 114.6428 113.9080
2750 7.6973 121(11) 114.6594 113.8781
2751 7.6993 104(10) 114.6805 113.8481
2752 7.7013 119(11) 114.7067 113.8182
2753 7.7033 115(11) 114.7387 113.7883
2754 7.7053 119(11) 114.7773 113.7584
2755 7.7073 117(11) 114.8234 113.7285
2756 7.7093 110(10) 114.9928 113.6987
2757 7.7113 113(11) 115.0605 113.6688
2758 7.7133 119(11) 115.1396 113.6389
2759 7.7153 115(11) 115.2317 113.6091
2760 7.7173 108(10) 115.3390 113.5793
2761 7.7193 116(11) 115.4643 113.5495
2762 7.7213 113(11) 115.6115 113.5196
2763 7.7233 115(11) 115.7862 113.4899
2764 7.7253 112(11) 115.9969 113.4601
2765 7.7273 109(10) 116.2569 113.4303
2766 7.7293 114(11) 116.5887 113.4005
2767 7.7313 109(10) 117.0312 113.3708
2768 7.7333 116(11) 117.6540 113.3410
2769 7.7353 123(11) 118.5834 113.3113
2770 7.7373 118(11) 120.0431 113.2815
2771 7.7393 126(11) 122.4123 113.2518
2772 7.7413 138(12) 126.2741 113.2221
2773 7.7433 136(12) 132.4274 113.1924
2774 7.7453 137(12) 141.7701 113.1627
2775 7.7473 149(12) 155.0037 113.1330
2776 7.7493 183(14) 172.1717 113.1034
2777 7.7513 199(14) 192.2374 113.0737
2778 7.7533 216(15) 212.6118 113.0441
2779 7.7553 245(16) 229.6825 113.0145
2780 7.7573 245(16) 239.5335 112.9848
2781 7.7593 259(16) 239.5251 112.9552
2782 7.7613 216(15) 229.7330 112.9256
2783 7.7633 198(14) 212.9415 112.8960
2784 7.7653 188(14) 193.2909 112.8664
2785 7.7673 179(13) 174.5424 112.8369
2786 7.7693 168(13) 158.7952 112.8073
2787 7.7713 147(12) 146.5514 112.7777
2788 7.7733 153(12) 137.4317 112.7482
2789 7.7753 136(12) 130.8049 112.7187
2790 7.7773 138(12) 126.0861 112.6892
2791 7.7793 131(11) 122.8010 112.6596
2792 7.7813 129(11) 120.5690 112.6301
2793 7.7833 122(11) 119.0725 112.6007
2794 7.7853 117(11) 118.0609 112.5712
2795 7.7873 122(11) 117.3520 112.5417
2796 7.7893 118(11) 116.8271 112.5123
2797 7.7913 115(11) 116.4163 112.4828
2798 7.7933 108(10) 116.0830 112.4534
2799 7.7953 117(11) 115.8082 112.4239
2800 7.7973 120(11) 115.5818 112.3945
2801 7.7993 123(11) 115.3977 112.3651
2802 7.8013 120(11) 115.4327 112.3357
2803 7.8033 118(11) 115.3261 112.3064
2804 7.8053 116(11) 115.2515 112.2770
2805 7.8073 113(11) 115.2072 112.2476
2806 7.8093 124(11) 115.1924 112.2182
2807 7.8113 124(11) 115.2078 112.1889
2808 7.8133 120(11) 115.2558 112.1596
2809 7.8153 119(11) 116.3203 112.1303
2810 7.8173 117(11) 116.4808 112.1009
2811 7.8193 123(11) 116.7065 112.0716
2812 7.8213 117(11) 117.0274 112.0423
2813 7.8233 122(11) 117.4986 112.0131
2814 7.8253 125(11) 118.2201 111.9838
2815 7.8273 125(11) 119.3703 111.9545
2816 7.8293 129(11) 121.2510 111.9253
2817 7.8313 131(11) 124.3314 111.8960
2818 7.8333 143(12) 129.2422 111.8668
2819 7.8353 156(12) 136.6810 111.8376
2820 7.8373 161(13) 147.1465 111.8084
2821 7.8393 176(13) 160.5454 111.7792
2822 7.8413 181(13) 175.8113 111.7500
2823 7.8433 188(14) 190.7717 111.7208
2824 7.8453 201(14) 202.4417 111.6916
2825 7.8473 193(14) 207.7668 111.6625
2826 7.8493 199(14) 204.9329 111.6333
2827 7.8513 195(14) 194.7191 111.6042
2828 7.8533 168(13) 180.4270 111.5751
2829 7.8553 171(13) 165.7959 111.5460
2830 7.8573 150(12) 153.1508 111.5168
2831 7.8593 146(12) 143.2338 111.4877
2832 7.8613 154(12) 135.8434 111.4587
2833 7.8633 146(12) 130.4977 111.4296
2834 7.8653 130(11) 126.7536 111.4005
2835 7.8673 132(12) 124.2872 111.3715
2836 7.8693 133(12) 122.8737 111.3424
2837 7.8713 130(11) 122.3757 111.3134
2838 7.8733 120(11) 122.7639 111.2844
2839 7.8753 126(11) 124.1430 111.2554
2840 7.8773 124(11) 126.7426 111.2263
2841 7.8793 142(12) 130.8343 111.1974
2842 7.8813 140(12) 136.5623 111.1684
2843 7.8833 140(12) 143.7286 111.1394
2844 7.8853 149(12) 151.7354 111.1104
2845 7.8873 175(13) 159.0805 111.0815
2846 7.8893 181(13) 164.3213 111.0525
2847 7.8913 166(13) 166.0256 111.0236
2848 7.8933 168(13) 163.5931 110.9947
2849 7.8953 177(13) 157.8318 110.9658
2850 7.8973 162(13) 150.5911 110.9369
2851 7.8993 142(12) 143.5454 110.9080
2852 7.9013 148(12) 137.8076 110.8791
2853 7.9033 136(12) 133.4312 110.8502
2854 7.9053 130(11) 130.4135 110.8214
2855 7.9073 132(12) 128.4370 110.7925
2856 7.9093 135(12) 127.2961 110.7637
2857 7.9113 116(11) 126.8407 110.7349
2858 7.9133 126(11) 126.9611 110.7061
2859 7.9153 125(11) 127.5827 110.6772
2860 7.9173 132(12) 128.6814 110.6485
2861 7.9193 130(11) 130.3132 110.6197
2862 7.9213 133(12) 132.6567 110.5909
2863 7.9233 144(12) 136.0750 110.5621
2864 7.9253 147(12) 141.1824 110.5333
2865 7.9273 164(13) 148.9740 110.5046
2866 7.9293 173(13) 160.5630 110.4759
2867 7.9313 186(14) 177.3594 110.4472
2868 7.9333 223(15) 200.4706 110.4184
2869 7.9353 266(16) 230.3365 110.3897
2870 7.9373 288(17) 266.5658 110.3610
2871 7.9393 362(19) 308.2286 110.3324
2872 7.9413 420(21) 354.8893 110.3037
2873 7.9433 481(22) 407.7102 110.2750
2874 7.9453 569(24) 470.3829 110.2464
2875 7.9473 658(26) 548.4255 110.2177
2876 7.9493 688(26) 644.8785 110.1891
2877 7.9513 770(28) 753.8954 110.1604
2878 7.9533 826(29) 858.4760 110.1318
2879 7.9553 822(29) 933.6690 110.1032
2880 7.9573 808(28) 954.7408 110.0746
2881 7.9593 737(27) 909.0955 110.0461
2882 7.9613 682(26) 806.8436 110.0175
2883 7.9633 637(25) 676.8805 109.9889
2884 7.9653 587(24) 548.8923 109.9604
2885 7.9673 491(22) 439.8296 109.9318
2886 7.9693 424(21) 354.1948 109.9033
2887 7.9713 380(19) 289.6890 109.8748
2888 7.9733 332(18) 242.0695 109.8463
2889 7.9753 296(17) 207.4721 109.8178
2890 7.9773 266(16) 182.9269 109.7893
2891 7.9793 237(15) 165.9863 109.7608
2892 7.9813 197(14) 154.5568 109.7323
2893 7.9833 179(13) 146.8687 109.7039
2894 7.9853 165(13) 141.5569 109.6754
2895 7.9873 162(13) 137.6871 109.6470
2896 7.9893 144(12) 134.6910 109.6185
2897 7.9913 131(11) 132.2622 109.5901
2898 7.9933 145(12) 130.1332 109.5617
2899 7.9953 136(12) 128.4495 109.5333
2900 7.9973 133(12) 127.0596 109.5049
2901 7.9993 116(11) 125.9462 109.4766
2902 8.0013 116(11) 125.1118 109.4482
2903 8.0033 129(11) 124.5877 109.4198
2904 8.0053 132(12) 124.4554 109.3915
2905 8.0073 123(11) 124.8780 109.3631
2906 8.0093 120(11) 126.1470 109.3348
2907 8.0113 123(11) 128.7256 109.3065
2908 8.0133 128(11) 133.2564 109.2782
2909 8.0153 133(12) 140.4785 109.2499
2910 8.0173 146(12) 150.9746 109.2216
2911 8.0193 159(13) 164.8074 109.1933
2912 8.0213 171(13) 181.1004 109.1651
2913 8.0233 193(14) 197.8280 109.1368
2914 8.0253 210(15) 211.9902 109.1086
2915 8.0273 206(14) 220.2461 109.0803
2916 8.0293 220(15) 220.0450 109.0521
2917 8.0313 200(14) 211.1301 109.0239
2918 8.0333 201(14) 196.1903 108.9957
2919 8.0353 180(13) 179.3266 108.9675
2920 8.0373 161(13) 163.6989 108.9393
2921 8.0393 143(12) 150.8855 108.9111
2922 8.0413 140(12) 140.9899 108.8830
2923 8.0433 146(12) 133.6163 108.8548
2924 8.0453 127(11) 128.2655 108.8267
2925 8.0473 119(11) 124.5454 108.7985
2926 8.0493 120(11) 122.1883 108.7704
2927 8.0513 115(11) 121.0341 108.7423
2928 8.0533 120(11) 121.0357 108.7142
2929 8.0553 115(11) 122.5243 108.6861
2930 8.0573 128(11) 125.1832 108.6580
2931 8.0593 126(11) 129.4440 108.6300
2932 8.0613 129(11) 135.3208 108.6019
2933 8.0633 143(12) 142.4554 108.5739
2934 8.0653 145(12) 149.9909 108.5458
2935 8.0673 159(13) 156.6161 108.5178
2936 8.0693 161(13) 160.8002 108.4897
2937 8.0713 177(13) 161.2819 108.4617
2938 8.0733 175(13) 157.7217 108.4337
2939 8.0753 154(12) 151.1234 108.4057
2940 8.0773 135(12) 143.3130 108.3778
2941 8.0793 136(12) 135.8751 108.3498
2942 8.0813 131(11) 129.6152 108.3218
2943 8.0833 133(12) 124.7766 108.2939
2944 8.0853 124(11) 121.0461 108.2659
2945 8.0873 109(10) 118.2626 108.2380
2946 8.0893 118(11) 116.0375 108.2101
2947 8.0913 113(11) 114.5710 108.1822
2948 8.0933 110(11) 113.5394 108.1543
2949 8.0953 107(10) 112.8220 108.1264
2950 8.0973 113(11) 112.3184 108.0985
2951 8.0993 105(10) 111.9510 108.0706
2952 8.1013 114(11) 111.6676 108.0428
2953 8.1033 116(11) 111.4365 108.0149
2954 8.1053 121(11) 110.2876 107.9871
2955 8.1073 113(11) 110.1429 107.9593
2956 8.1093 111(11) 110.0184 107.9314
2957 8.1113 110(10) 109.9114 107.9037
2958 8.1133 113(11) 109.8199 107.8758
2959 8.1153 108(10) 109.7421 107.8481
2960 8.1173 104(10) 109.6768 107.8203
2961 8.1193 109(10) 109.6226 107.7925
2962 8.1213 106(10) 109.5786 107.7648
2963 8.1233 106(10) 109.5441 107.7370
2964 8.1253 112(11) 109.5185 107.7093
2965 8.1273 115(11) 109.5013 107.6815
2966 8.1293 105(10) 109.4925 107.6538
2967 8.1313 111(11) 109.8262 107.6261
2968 8.1333 110(10) 109.8433 107.5984
2969 8.1353 115(11) 109.8693 107.5707
2970 8.1373 115(11) 109.9047 107.5431
2971 8.1393 102(10) 109.9502 107.5154
2972 8.1413 111(11) 110.0064 107.4877
2973 8.1433 114(11) 110.0742 107.4601
2974 8.1453 112(11) 110.1545 107.4325
2975 8.1473 106(10) 110.2489 107.4048
2976 8.1493 112(11) 110.3585 107.3772
2977 8.1513 110(10) 110.4852 107.3496
2978 8.1533 115(11) 110.6311 107.3220
2979 8.1553 113(11) 110.7986 107.2944
2980 8.1573 117(11) 110.9907 107.2669
2981 8.1593 109(10) 111.2117 107.2393
2982 8.1613 114(11) 111.4667 107.2117
2983 8.1633 105(10) 111.7634 107.1842
2984 8.1653 121(11) 112.1129 107.1567
2985 8.1673 115(11) 112.5322 107.1291
2986 8.1693 113(11) 113.0485 107.1016
2987 8.1713 113(11) 113.7069 107.0741
2988 8.1733 116(11) 114.5855 107.0466
2989 8.1753 121(11) 115.8204 107.0191
2990 8.1773 114(11) 117.5267 106.9917
2991 8.1793 126(11) 120.3705 106.9642
2992 8.1813 129(11) 124.8847 106.9367
2993 8.1833 142(12) 132.0438 106.9093
2994 8.1853 149(12) 143.1017 106.8819
2995 8.1873 167(13) 159.3687 106.8544
2996 8.1893 194(14) 181.6859 106.8270
2997 8.1913 211(15) 209.7732 106.7996
2998 8.1933 246(16) 241.5621 106.7722
2999 8.1953 276(17) 272.9908 106.7448
3000 8.1973 311(18) 298.4808 106.7175
3001 8.1993 351(19) 312.1845 106.6901
3002 8.2013 361(19) 310.0668 106.6628
3003 8.2033 316(18) 292.4948 106.6354
3004 8.2053 299(17) 264.8577 106.6081
3005 8.2073 275(17) 234.5504 106.5808
3006 8.2093 228(15) 207.2036 106.5535
3007 8.2113 194(14) 185.5011 106.5261
3008 8.2133 178(13) 170.0341 106.4988
3009 8.2153 169(13) 160.4975 106.4716
3010 8.2173 154(12) 156.3172 106.4443
3011 8.2193 158(13) 156.7366 106.4170
3012 8.2213 167(13) 160.8565 106.3898
3013 8.2233 166(13) 167.0921 106.3625
3014 8.2253 170(13) 173.4468 106.3353
3015 8.2273 175(13) 177.7283 106.3081
3016 8.2293 181(13) 178.1057 106.2809
3017 8.2313 158(13) 173.8515 106.2537
3018 8.2333 155(12) 165.8742 106.2265
3019 8.2353 152(12) 156.2252 106.1993
3020 8.2373 144(12) 146.8621 106.1721
3021 8.2393 136(12) 138.8926 106.1450
3022 8.2413 136(12) 132.6397 106.1178
3023 8.2433 139(12) 127.9813 106.0907
3024 8.2453 124(11) 124.6714 106.0635
3025 8.2473 127(11) 122.4921 106.0364
3026 8.2493 129(11) 121.3024 106.0093
3027 8.2513 121(11) 121.0502 105.9822
3028 8.2533 129(11) 121.8004 105.9551
3029 8.2553 137(12) 123.8015 105.9280
3030 8.2573 144(12) 127.5854 105.9010
3031 8.2593 154(12) 134.0698 105.8739
3032 8.2613 188(14) 144.6019 105.8468
3033 8.2633 205(14) 160.8358 105.8198
3034 8.2653 233(15) 184.3368 105.7928
3035 8.2673 258(16) 215.7974 105.7657
3036 8.2693 296(17) 254.1998 105.7387
3037 8.2713 325(18) 296.0877 105.7117
3038 8.2733 357(19) 335.5503 105.6847
3039 8.2753 349(19) 365.0982 105.6578
3040 8.2773 354(19) 377.5154 105.6308
3041 8.2793 350(19) 368.7792 105.6038
3042 8.2813 328(18) 341.0578 105.5769
3043 8.2833 297(17) 302.3228 105.5499
3044 8.2853 272(16) 261.7333 105.5230
3045 8.2873 250(16) 225.4251 105.4961
3046 8.2893 238(15) 195.7813 105.4692
3047 8.2913 210(14) 172.7531 105.4423
3048 8.2933 189(14) 155.3488 105.4154
3049 8.2953 169(13) 142.4249 105.3885
3050 8.2973 160(13) 133.0249 105.3616
3051 8.2993 143(12) 126.3636 105.3348
3052 8.3013 146(12) 121.7611 105.3079
3053 8.3033 128(11) 118.6235 105.2811
3054 8.3053 124(11) 116.4621 105.2543
3055 8.3073 124(11) 114.9166 105.2274
3056 8.3093 125(11) 113.7453 105.2006
3057 8.3113 124(11) 112.8050 105.1738
3058 8.3133 117(11) 112.0181 105.1470
3059 8.3153 118(11) 111.3448 105.1203
3060 8.3173 117(11) 110.7651 105.0935
3061 8.3193 120(11) 110.2685 105.0667
3062 8.3213 116(11) 109.8470 105.0400
3063 8.3233 122(11) 109.4930 105.0133
3064 8.3253 107(10) 109.1969 104.9865
3065 8.3273 114(11) 108.9462 104.9598
3066 8.3293 104(10) 108.7250 104.9331
3067 8.3313 111(11) 108.5156 104.9064
3068 8.3333 116(11) 108.3020 104.8797
3069 8.3353 112(11) 108.0738 104.8530
3070 8.3373 107(10) 107.8319 104.8264
3071 8.3393 112(11) 107.5868 104.7997
3072 8.3413 105(10) 107.3520 104.7731
3073 8.3433 110(10) 107.1362 104.7464
3074 8.3453 105(10) 106.9422 104.7198
3075 8.3473 111(11) 106.7688 104.6932
3076 8.3493 111(11) 106.6135 104.6665
3077 8.3513 108(10) 106.2294 104.6400
3078 8.3533 110(10) 106.1085 104.6134
3079 8.3553 108(10) 106.0886 104.5868
3080 8.3573 110(10) 105.9895 104.5602
3081 8.3593 107(10) 105.8979 104.5336
3082 8.3613 114(11) 105.8125 104.5071
3083 8.3633 106(10) 105.7323 104.4806
3084 8.3653 106(10) 105.6564 104.4540
3085 8.3673 109(10) 105.5843 104.4275
3086 8.3693 100(10) 105.5157 104.4010
3087 8.3713 105(10) 105.4501 104.3745
3088 8.3733 105(10) 105.3920 104.3480
3089 8.3753 107(10) 105.3319 104.3215
3090 8.3773 101(10) 105.2743 104.2951
3091 8.3793 108(10) 105.2190 104.2686
3092 8.3813 115(11) 105.0917 104.2422
3093 8.3833 108(10) 105.0423 104.2157
3094 8.3853 109(10) 104.9947 104.1893
3095 8.3873 105(10) 104.9487 104.1629
3096 8.3893 110(10) 104.9043 104.1365
3097 8.3913 112(11) 104.8615 104.1101
3098 8.3933 110(10) 104.8200 104.0837
3099 8.3953 108(10) 104.7799 104.0573
3100 8.3973 102(10) 104.7411 104.0309
3101 8.3993 110(10) 104.7036 104.0046
3102 8.4013 101(10) 104.6674 103.9782
3103 8.4033 104(10) 104.6323 103.9519
3104 8.4053 107(10) 104.5984 103.9255
3105 8.4073 101(10) 104.5657 103.8992
3106 8.4093 104(10) 104.5342 103.8729
3107 8.4113 106(10) 104.5038 103.8466
3108 8.4133 113(11) 104.4746 103.8203
3109 8.4153 103(10) 104.4465 103.7941
3110 8.4173 101(10) 104.4197 103.7678
3111 8.4193 102(10) 104.3941 103.7415
3112 8.4213 104(10) 104.3698 103.7153
3113 8.4233 105(10) 104.3468 103.6890
3114 8.4253 109(10) 104.3252 103.6628
3115 8.4273 105(10) 104.3050 103.6366
3116 8.4293 104(10) 104.2864 103.6104
3117 8.4313 107(10) 103.9500 103.5842
3118 8.4333 109(10) 103.9430 103.5580
3119 8.4353 107(10) 103.9375 103.5318
3120 8.4373 113(11) 103.9338 103.5056
3121 8.4393 109(10) 103.9321 103.4795
3122 8.4413 114(11) 103.9324 103.4533
3123 8.4433 106(10) 103.9352 103.4272
3124 8.4453 111(11) 103.9407 103.4011
3125 8.4473 111(11) 103.9492 103.3749
3126 8.4493 112(11) 103.9612 103.3488
3127 8.4513 108(10) 103.9769 103.3227
3128 8.4533 110(10) 103.9969 103.2966
3129 8.4553 104(10) 104.0219 103.2706
3130 8.4573 105(10) 104.0523 103.2445
3131 8.4593 108(10) 104.0891 103.2184
3132 8.4613 113(11) 104.1331 103.1924
3133 8.4633 111(11) 104.1856 103.1663
3134 8.4653 104(10) 104.2481 103.1403
3135 8.4673 110(10) 104.3228 103.1143
3136 8.4693 110(10) 104.4128 103.0883
3137 8.4713 110(11) 104.5227 103.0623
3138 8.4733 110(11) 104.7556 103.0363
3139 8.4753 105(10) 104.9333 103.0103
3140 8.4773 116(11) 105.1684 102.9843
3141 8.4793 114(11) 105.4934 102.9584
3142 8.4813 110(10) 105.9647 102.9324
3143 8.4833 115(11) 106.6782 102.9065
3144 8.4853 116(11) 107.8178 102.8806
3145 8.4873 121(11) 109.5752 102.8546
3146 8.4893 129(11) 112.3185 102.8287
3147 8.4913 122(11) 116.4583 102.8028
3148 8.4933 139(12) 122.3957 102.7769
3149 8.4953 144(12) 130.3559 102.7511
3150 8.4973 161(13) 140.1804 102.7252
3151 8.4993 161(13) 151.1506 102.6993
3152 8.5013 169(13) 161.9481 102.6735
3153 8.5033 170(13) 170.7862 102.6476
3154 8.5053 172(13) 175.8080 102.6218
3155 8.5073 166(13) 175.6760 102.5960
3156 8.5093 166(13) 170.3426 102.5702
3157 8.5113 160(13) 161.3419 102.5444
3158 8.5133 159(13) 151.0003 102.5186
3159 8.5153 159(13) 141.2382 102.4928
3160 8.5173 143(12) 133.0525 102.4670
3161 8.5193 140(12) 126.6398 102.4413
3162 8.5213 126(11) 121.7758 102.4155
3163 8.5233 136(12) 118.0941 102.3898
3164 8.5253 133(12) 115.2407 102.3641
3165 8.5273 131(11) 112.9406 102.3383
3166 8.5293 116(11) 111.0253 102.3126
3167 8.5313 114(11) 109.4272 102.2869
3168 8.5333 115(11) 108.1226 102.2612
3169 8.5353 108(10) 107.0852 102.2355
3170 8.5373 105(10) 106.2727 102.2099
3171 8.5393 105(10) 105.6369 102.1842
3172 8.5413 111(11) 105.1352 102.1585
3173 8.5433 110(10) 104.7361 102.1329
3174 8.5453 109(10) 104.4171 102.1073
3175 8.5473 97(10) 104.1620 102.0817
3176 8.5493 101(10) 103.9582 102.0560
3177 8.5513 107(10) 103.7948 102.0304
3178 8.5533 109(10) 103.6628 102.0049
3179 8.5553 100(10) 103.5547 101.9793
3180 8.5573 105(10) 103.4653 101.9537
3181 8.5593 98(10) 103.3907 101.9281
3182 8.5613 109(10) 103.3284 101.9026
3183 8.5633 108(10) 103.2769 101.8770
3184 8.5653 104(10) 103.2352 101.8515
3185 8.5673 108(10) 103.2027 101.8260
3186 8.5693 105(10) 103.1791 101.8005
3187 8.5713 100(10) 103.1643 101.7750
3188 8.5733 102(10) 103.1582 101.7495
3189 8.5753 99(10) 103.1611 101.7240
3190 8.5773 101(10) 103.1733 101.6985
3191 8.5793 114(11) 103.1954 101.6731
3192 8.5813 104(10) 103.2282 101.6476
3193 8.5833 109(10) 103.2727 101.6222
3194 8.5853 99(10) 103.3306 101.5967
3195 8.5873 99(10) 103.4039 101.5713
3196 8.5893 103(10) 103.4959 101.5459
3197 8.5913 110(10) 103.6113 101.5205
3198 8.5933 108(10) 103.7575 101.4951
3199 8.5953 104(10) 103.9460 101.4697
3200 8.5973 100(10) 104.1963 101.4443
3201 8.5993 107(10) 104.5412 101.4190
3202 8.6013 113(11) 105.0370 101.3936
3203 8.6033 103(10) 105.7790 101.3683
3204 8.6053 107(10) 106.9235 101.3429
3205 8.6073 109(10) 108.7119 101.3176
3206 8.6093 112(11) 111.4818 101.2923
3207 8.6113 114(11) 115.6545 101.2670
3208 8.6133 123(11) 121.6575 101.2417
3209 8.6153 127(11) 129.7791 101.2164
3210 8.6173 122(11) 139.9709 101.1911
3211 8.6193 144(12) 151.6678 101.1659
3212 8.6213 158(13) 163.7232 101.1406
3213 8.6233 160(13) 174.4945 101.1154
3214 8.6253 174(13) 182.1769 101.0901
3215 8.6273 169(13) 185.2920 101.0649
3216 8.6293 176(13) 183.7576 101.0397
3217 8.6313 173(13) 177.9025 101.0145
3218 8.6333 166(13) 170.0756 100.9893
3219 8.6353 149(12) 162.0551 100.9641
3220 8.6373 134(12) 154.6586 100.9389
3221 8.6393 145(12) 147.8587 100.9138
3222 8.6413 143(12) 141.2869 100.8886
3223 8.6433 122(11) 134.7441 100.8635
3224 8.6453 122(11) 128.4196 100.8383
3225 8.6473 122(11) 122.7088 100.8132
3226 8.6493 117(11) 117.9184 100.7881
3227 8.6513 115(11) 114.1225 100.7630
3228 8.6533 113(11) 111.2233 100.7379
3229 8.6553 110(10) 109.0475 100.7128
3230 8.6573 106(10) 107.4220 100.6877
3231 8.6593 110(10) 106.2068 100.6626
3232 8.6613 102(10) 105.2995 100.6376
3233 8.6633 100(10) 104.5347 100.6125
3234 8.6653 109(10) 104.0310 100.5875
3235 8.6673 103(10) 103.6505 100.5625
3236 8.6693 106(10) 103.3566 100.5375
3237 8.6713 101(10) 103.1226 100.5125
3238 8.6733 105(10) 102.9304 100.4874
3239 8.6753 104(10) 102.7688 100.4625
3240 8.6773 102(10) 102.6305 100.4375
3241 8.6793 103(10) 102.5112 100.4125
3242 8.6813 111(11) 102.4080 100.3876
3243 8.6833 109(10) 102.3141 100.3626
3244 8.6853 106(10) 102.2374 100.3377
3245 8.6873 103(10) 102.1719 100.3127
3246 8.6893 94(10) 102.1163 100.2878
3247 8.6913 102(10) 102.0699 100.2629
3248 8.6933 110(10) 102.0318 100.2380
3249 8.6953 108(10) 102.0016 100.2131
3250 8.6973 97(10) 101.9788 100.1883
3251 8.6993 101(10) 101.9631 100.1634
3252 8.7013 99(10) 101.9544 100.1385
3253 8.7033 105(10) 101.9525 100.1137
3254 8.7053 103(10) 101.9575 100.0888
3255 8.7073 104(10) 101.9694 100.0640
3256 8.7093 106(10) 101.9885 100.0392
3257 8.7113 110(10) 102.0152 100.0144
3258 8.7133 107(10) 102.0496 99.9896
3259 8.7153 99(10) 102.0924 99.9648
3260 8.7173 95(10) 102.1441 99.9400
3261 8.7193 108(10) 102.2055 99.9152
3262 8.7213 98(10) 102.2773 99.8905
3263 8.7233 96(10) 102.3606 99.8657
3264 8.7253 106(10) 102.4566 99.8410
3265 8.7273 105(10) 102.5664 99.8162
3266 8.7293 107(10) 102.6916 99.7915
3267 8.7313 94(10) 102.8340 99.7668
3268 8.7333 105(10) 102.9957 99.7421
3269 8.7353 100(10) 103.1790 99.7174
3270 8.7373 105(10) 103.3868 99.6928
3271 8.7393 111(11) 103.6226 99.6681
3272 8.7413 110(11) 103.8938 99.6434
3273 8.7433 105(10) 104.2002 99.6188
3274 8.7453 108(10) 104.5528 99.5941
3275 8.7473 105(10) 104.9628 99.5695
3276 8.7493 103(10) 105.4467 99.5449
3277 8.7513 107(10) 106.0299 99.5202
3278 8.7533 110(10) 106.7925 99.4956
3279 8.7553 113(11) 107.7191 99.4711
3280 8.7573 110(11) 108.9592 99.4465
3281 8.7593 111(11) 110.6991 99.4219
3282 8.7613 118(11) 113.2525 99.3973
3283 8.7633 115(11) 117.1779 99.3728
3284 8.7653 131(11) 123.1751 99.3482
3285 8.7673 146(12) 132.4053 99.3237
3286 8.7693 157(13) 146.2867 99.2992
3287 8.7713 177(13) 166.3157 99.2747
3288 8.7733 204(14) 193.6167 99.2502
3289 8.7753 242(16) 228.2850 99.2257
3290 8.7773 266(16) 268.7362 99.2012
3291 8.7793 285(17) 311.2402 99.1767
3292 8.7813 310(18) 350.2060 99.1523
3293 8.7833 330(18) 378.9291 99.1278
3294 8.7853 333(18) 391.1488 99.1034
3295 8.7873 320(18) 383.3832 99.0789
3296 8.7893 292(17) 357.3725 99.0545
3297 8.7913 303(17) 319.7652 99.0301
3298 8.7933 261(16) 278.8007 99.0057
3299 8.7953 232(15) 240.5781 98.9813
3300 8.7973 214(15) 208.0632 98.9569
3301 8.7993 194(14) 181.8450 98.9325
3302 8.8013 188(14) 161.4047 98.9081
3303 8.8033 170(13) 145.7855 98.8838
3304 8.8053 150(12) 134.0808 98.8594
3305 8.8073 147(12) 125.5209 98.8351
3306 8.8093 125(11) 119.4158 98.8108
3307 8.8113 124(11) 115.1544 98.7865
3308 8.8133 121(11) 112.2051 98.7622
3309 8.8153 115(11) 110.1380 98.7379
3310 8.8173 109(10) 108.6353 98.7136
3311 8.8193 105(10) 107.4862 98.6893
3312 8.8213 108(10) 106.5599 98.6650
3313 8.8233 105(10) 105.7828 98.6408
3314 8.8253 109(10) 105.1145 98.6165
3315 8.8273 108(10) 104.5325 98.5923
3316 8.8293 107(10) 104.0232 98.5681
3317 8.8313 100(10) 103.5763 98.5438
3318 8.8333 104(10) 103.1843 98.5196
3319 8.8353 104(10) 102.8397 98.4954
3320 8.8373 98(10) 102.5363 98.4712
3321 8.8393 105(10) 102.2686 98.4471
3322 8.8413 96(10) 102.0319 98.4229
3323 8.8433 99(10) 101.8221 98.3987
3324 8.8453 104(10) 101.6362 98.3746
3325 8.8473 101(10) 101.4736 98.3504
3326 8.8493 103(10) 101.3274 98.3263
3327 8.8513 105(10) 101.1982 98.3022
3328 8.8533 104(10) 101.0844 98.2781
3329 8.8553 101(10) 100.9852 98.2540
3330 8.8573 105(10) 100.8994 98.2299
3331 8.8593 100(10) 100.8267 98.2058
3332 8.8613 103(10) 100.7666 98.1817
3333 8.8633 91(10) 100.7190 98.1577
3334 8.8653 104(10) 100.6839 98.1336
3335 8.8673 109(10) 100.6617 98.1096
3336 8.8693 109(10) 100.6534 98.0856
3337 8.8713 108(10) 100.6601 98.0615
3338 8.8733 102(10) 100.6843 98.0375
3339 8.8753 95(10) 100.7295 98.0135
3340 8.8773 103(10) 100.8016 97.9895
3341 8.8793 99(10) 100.9099 97.9655
3342 8.8813 100(10) 101.0686 97.9416
3343 8.8833 98(10) 101.2993 97.9176
3344 8.8853 108(10) 101.6330 97.8937
3345 8.8873 107(10) 102.1136 97.8697
3346 8.8893 115(11) 102.8007 97.8458
3347 8.8913 111(11) 103.7737 97.8219
3348 8.8933 106(10) 105.1355 97.7979
3349 8.8953 121(11) 107.0141 97.7740
3350 8.8973 116(11) 109.5561 97.7501
3351 8.8993 122(11) 112.8984 97.7263
3352 8.9013 116(11) 117.1360 97.7024
3353 8.9033 118(11) 122.2723 97.6785
3354 8.9053 121(11) 128.1839 97.6547
3355 8.9073 119(11) 134.5938 97.6308
3356 8.9093 126(11) 141.0637 97.6070
3357 8.9113 121(11) 147.0163 97.5832
3358 8.9133 128(11) 151.8718 97.5593
3359 8.9153 126(11) 155.2435 97.5355
3360 8.9173 145(12) 157.0801 97.5117
3361 8.9193 147(12) 157.5166 97.4880
3362 8.9213 158(13) 156.5727 97.4642
3363 8.9233 148(12) 154.0935 97.4404
3364 8.9253 148(12) 150.0604 97.4167
3365 8.9273 145(12) 144.9677 97.3929
3366 8.9293 141(12) 139.8513 97.3692
3367 8.9313 141(12) 135.8864 97.3455
3368 8.9333 135(12) 133.9662 97.3217
3369 8.9353 142(12) 134.5257 97.2980
3370 8.9373 136(12) 137.5213 97.2743
3371 8.9393 147(12) 142.4529 97.2506
3372 8.9413 154(12) 148.4041 97.2270
3373 8.9433 159(13) 154.1337 97.2033
3374 8.9453 170(13) 158.2480 97.1796
3375 8.9473 178(13) 159.4868 97.1560
3376 8.9493 186(14) 156.8055 97.1324
3377 8.9513 163(13) 151.1903 97.1087
3378 8.9533 151(12) 143.4949 97.0851
3379 8.9553 148(12) 135.2123 97.0615
3380 8.9573 139(12) 127.4703 97.0379
3381 8.9593 122(11) 120.8307 97.0143
3382 8.9613 118(11) 115.4227 96.9907
3383 8.9633 115(11) 111.1497 96.9672
3384 8.9653 108(10) 107.8409 96.9436
3385 8.9673 117(11) 105.3238 96.9201
3386 8.9693 111(11) 103.4468 96.8965
3387 8.9713 100(10) 102.0764 96.8730
3388 8.9733 99(10) 101.0925 96.8495
3389 8.9753 104(10) 100.3894 96.8260
3390 8.9773 106(10) 99.8808 96.8024
3391 8.9793 96(10) 99.5010 96.7790
3392 8.9813 98(10) 99.2052 96.7555
3393 8.9833 104(10) 98.9663 96.7320
3394 8.9853 98(10) 98.7696 96.7085
3395 8.9873 103(10) 98.6093 96.6851
3396 8.9893 99(10) 98.4859 96.6616
3397 8.9913 92(10) 98.4037 96.6382
3398 8.9933 98(10) 98.3698 96.6148
3399 8.9953 105(10) 98.3913 96.5914
3400 8.9973 100(10) 98.4721 96.5680
3401 8.9993 105(10) 98.6088 96.5446
3402 9.0013 98(10) 98.7872 96.5212
3403 9.0033 110(11) 98.9799 96.4978
3404 9.0053 104(10) 99.1490 96.4744
3405 9.0073 96(10) 99.2511 96.4511
3406 9.0093 99(10) 99.2474 96.4278
3407 9.0113 102(10) 99.1527 96.4044
3408 9.0133 97(10) 98.9117 96.3811
3409 9.0153 102(10) 98.6007 96.3578
3410 9.0173 99(10) 98.2711 96.3345
3411 9.0193 90(9) 97.9608 96.3112
3412 9.0213 101(10) 97.6889 96.2879
3413 9.0233 104(10) 97.4599 96.2646
3414 9.0253 97(10) 97.2706 96.2414
3415 9.0273 101(10) 97.1153 96.2181
3416 9.0293 98(10) 96.9883 96.1949
3417 9.0313 95(10) 96.8842 96.1716
3418 9.0333 94(10) 96.7987 96.1484
3419 9.0353 93(10) 96.7274 96.1252
3420 9.0373 97(10) 96.6667 96.1020
3421 9.0393 100(10) 96.6137 96.0788
3422 9.0413 98(10) 96.5661 96.0556
3423 9.0433 103(10) 96.5222 96.0324
3424 9.0453 100(10) 96.4810 96.0092
3425 9.0473 96(10) 96.4421 95.9861
3426 9.0493 97(10) 96.4049 95.9629
3427 9.0513 94(10) 96.3696 95.9398
3428 9.0533 96(10) 96.3357 95.9167
3429 9.0553 92(10) 96.3032 95.8935
3430 9.0573 102(10) 96.2720 95.8704
3431 9.0593 93(10) 96.2416 95.8474
3432 9.0613 99(10) 96.2118 95.8243
3433 9.0633 100(10) 96.1822 95.8012
3434 9.0653 96(10) 96.1525 95.7781
3435 9.0673 101(10) 96.1198 95.7550
3436 9.0693 94(10) 96.0901 95.7320
3437 9.0713 105(10) 96.0608 95.7089
3438 9.0733 93(10) 96.0322 95.6859
3439 9.0753 98(10) 96.0044 95.6629
3440 9.0773 89(9) 95.9776 95.6399
3441 9.0793 97(10) 95.9123 95.6169
3442 9.0813 93(10) 95.8883 95.5939
3443 9.0833 90(9) 95.8651 95.5709
3444 9.0853 98(10) 95.8429 95.5479
3445 9.0873 96(10) 95.8215 95.5250
3446 9.0893 100(10) 95.7554 95.5020
3447 9.0913 89(9) 95.7370 95.4791
3448 9.0933 92(10) 95.7198 95.4561
3449 9.0953 94(10) 95.7039 95.4332
3450 9.0973 95(10) 95.6897 95.4103
3451 9.0993 93(10) 95.6778 95.3874
3452 9.1013 96(10) 95.6691 95.3645
3453 9.1033 108(10) 95.6653 95.3416
3454 9.1053 98(10) 95.6689 95.3188
3455 9.1073 99(10) 95.6834 95.2959
3456 9.1093 96(10) 95.7140 95.2730
3457 9.1113 92(10) 95.7667 95.2502
3458 9.1133 93(10) 95.7772 95.2274
3459 9.1153 88(9) 95.8922 95.2045
3460 9.1173 95(10) 96.0396 95.1817
3461 9.1193 100(10) 96.2129 95.1589
3462 9.1213 100(10) 96.3971 95.1361
3463 9.1233 104(10) 96.5700 95.1133
3464 9.1253 98(10) 96.7047 95.0906
3465 9.1273 92(10) 96.7813 95.0678
3466 9.1293 93(10) 96.7712 95.0450
3467 9.1313 92(10) 96.6826 95.0223
3468 9.1333 97(10) 96.5389 94.9995
3469 9.1353 97(10) 96.3746 94.9768
3470 9.1373 99(10) 96.2193 94.9541
3471 9.1393 98(10) 96.0916 94.9314
3472 9.1413 102(10) 96.0001 94.9087
3473 9.1433 103(10) 95.9484 94.8860
3474 9.1453 94(10) 95.9398 94.8633
3475 9.1473 97(10) 95.9814 94.8407
3476 9.1493 104(10) 96.0874 94.8180
3477 9.1513 101(10) 96.2838 94.7954
3478 9.1533 103(10) 96.6137 94.7727
3479 9.1553 102(10) 97.1434 94.7501
3480 9.1573 102(10) 97.9659 94.7275
3481 9.1593 97(10) 99.1986 94.7048
3482 9.1613 96(10) 100.9644 94.6823
3483 9.1633 95(10) 103.3614 94.6597
3484 9.1653 104(10) 106.4122 94.6371
3485 9.1673 111(11) 110.0125 94.6145
3486 9.1693 113(11) 113.8962 94.5920
3487 9.1713 119(11) 117.6371 94.5694
3488 9.1733 116(11) 120.6972 94.5469
3489 9.1753 122(11) 122.5168 94.5243
3490 9.1773 125(11) 122.6769 94.5018
3491 9.1793 117(11) 121.1011 94.4793
3492 9.1813 117(11) 118.1497 94.4568
3493 9.1833 112(11) 114.4787 94.4343
3494 9.1853 115(11) 110.7253 94.4118
3495 9.1873 107(10) 107.3115 94.3893
3496 9.1893 98(10) 104.4177 94.3669
3497 9.1913 105(10) 102.1549 94.3444
3498 9.1933 106(10) 100.2987 94.3220
3499 9.1953 94(10) 98.8598 94.2996
3500 9.1973 101(10) 97.7656 94.2771
3501 9.1993 100(10) 96.9507 94.2547
3502 9.2013 101(10) 96.3573 94.2323
3503 9.2033 90(9) 95.9316 94.2099
3504 9.2053 95(10) 95.6274 94.1875
3505 9.2073 99(10) 95.4066 94.1651
3506 9.2093 95(10) 95.2475 94.1428
3507 9.2113 97(10) 95.1166 94.1204
3508 9.2133 93(10) 95.0083 94.0981
3509 9.2153 95(10) 94.9151 94.0757
3510 9.2173 96(10) 94.8328 94.0534
3511 9.2193 92(10) 94.7590 94.0311
3512 9.2213 106(10) 94.6924 94.0088
3513 9.2233 98(10) 94.6319 93.9865
3514 9.2253 102(10) 94.5768 93.9642
3515 9.2273 96(10) 94.7100 93.9419
3516 9.2293 102(10) 94.6683 93.9197
3517 9.2313 94(10) 94.6305 93.8974
3518 9.2333 96(10) 94.5961 93.8752
3519 9.2353 94(10) 94.5649 93.8529
3520 9.2373 88(9) 94.5366 93.8307
3521 9.2393 94(10) 94.5109 93.8085
3522 9.2413 107(10) 94.4877 93.7862
3523 9.2433 102(10) 94.4668 93.7640
3524 9.2453 97(10) 94.4481 93.7419
3525 9.2473 90(9) 94.4316 93.7197
3526 9.2493 103(10) 94.4173 93.6975
3527 9.2513 96(10) 94.4053 93.6753
3528 9.2533 92(10) 94.3956 93.6532
3529 9.2553 96(10) 94.3885 93.6311
3530 9.2573 100(10) 94.3844 93.6089
3531 9.2593 91(10) 94.3837 93.5868
3532 9.2613 96(10) 94.3874 93.5647
3533 9.2633 85(9) 94.3970 93.5426
3534 9.2653 93(10) 94.4149 93.5205
3535 9.2673 100(10) 94.4452 93.4984
3536 9.2693 102(10) 94.4942 93.4763
3537 9.2713 99(10) 94.5716 93.4543
3538 9.2733 91(10) 94.6914 93.4322
3539 9.2753 101(10) 94.8717 93.4102
3540 9.2773 101(10) 95.1333 93.3881
3541 9.2793 98(10) 95.4952 93.3661
3542 9.2813 93(10) 96.0068 93.3441
3543 9.2833 92(10) 96.5870 93.3221
3544 9.2853 96(10) 97.2435 93.3001
3545 9.2873 97(10) 97.9197 93.2781
3546 9.2893 95(10) 98.5359 93.2562
3547 9.2913 93(10) 98.9998 93.2342
3548 9.2933 99(10) 99.2257 93.2122
3549 9.2953 103(10) 99.1642 93.1903
3550 9.2973 100(10) 98.8301 93.1684
3551 9.2993 93(10) 98.3108 93.1464
3552 9.3013 99(10) 97.7179 93.1245
3553 9.3033 99(10) 97.1457 93.1026
3554 9.3053 98(10) 96.6570 93.0807
3555 9.3073 101(10) 96.2580 93.0588
3556 9.3093 101(10) 95.9555 93.0369
3557 9.3113 91(10) 95.7401 93.0151
3558 9.3133 91(10) 95.6010 92.9932
3559 9.3153 105(10) 95.5279 92.9714
3560 9.3173 100(10) 95.5123 92.9495
3561 9.3193 101(10) 95.5474 92.9277
3562 9.3213 96(10) 95.6283 92.9059
3563 9.3233 97(10) 95.7528 92.8841
3564 9.3253 97(10) 95.9231 92.8623
3565 9.3273 93(10) 96.1472 92.8405
3566 9.3293 98(10) 96.4423 92.8187
3567 9.3313 92(10) 96.8396 92.7969
3568 9.3333 99(10) 97.3911 92.7752
3569 9.3353 96(10) 98.1814 92.7534
3570 9.3373 95(10) 99.3406 92.7317
3571 9.3393 96(10) 101.0562 92.7099
3572 9.3413 103(10) 103.5772 92.6882
3573 9.3433 103(10) 107.1989 92.6665
3574 9.3453 107(10) 112.2055 92.6448
3575 9.3473 109(10) 118.7587 92.6231
3576 9.3493 124(11) 126.9124 92.6014
3577 9.3513 132(11) 136.2979 92.5798
3578 9.3533 141(12) 146.2032 92.5581
3579 9.3553 150(12) 155.5660 92.5364
3580 9.3573 162(13) 163.1076 92.5148
3581 9.3593 167(13) 167.5586 92.4932
3582 9.3613 178(13) 168.0580 92.4715
3583 9.3633 171(13) 164.5882 92.4499
3584 9.3653 164(13) 158.1628 92.4283
3585 9.3673 151(12) 150.4222 92.4067
3586 9.3693 141(12) 142.9308 92.3851
3587 9.3713 132(11) 136.7760 92.3636
3588 9.3733 129(11) 132.5547 92.3420
3589 9.3753 125(11) 130.5990 92.3204
3590 9.3773 122(11) 131.1828 92.2989
3591 9.3793 122(11) 134.6411 92.2774
3592 9.3813 127(11) 141.3710 92.2558
3593 9.3833 147(12) 151.7109 92.2343
3594 9.3853 153(12) 165.6709 92.2128
3595 9.3873 162(13) 182.6739 92.1913
3596 9.3893 199(14) 201.3466 92.1698
3597 9.3913 210(14) 219.5386 92.1483
3598 9.3933 254(16) 234.5599 92.1269
3599 9.3953 258(16) 243.6416 92.1054
3600 9.3973 276(17) 244.6433 92.0840
3601 9.3993 250(16) 237.0094 92.0625
3602 9.4013 237(15) 222.3019 92.0411
3603 9.4033 207(14) 203.6078 92.0197
3604 9.4053 186(14) 184.1113 91.9983
3605 9.4073 160(13) 166.0371 91.9769
3606 9.4093 148(12) 150.4586 91.9555
3607 9.4113 132(12) 137.6439 91.9341
3608 9.4133 120(11) 127.4026 91.9127
3609 9.4153 121(11) 119.3942 91.8914
3610 9.4173 117(11) 113.2625 91.8700
3611 9.4193 113(11) 108.6815 91.8487
3612 9.4213 108(10) 105.3590 91.8273
3613 9.4233 100(10) 103.0339 91.8060
3614 9.4253 103(10) 101.4866 91.7847
3615 9.4273 103(10) 100.5459 91.7634
3616 9.4293 96(10) 100.1066 91.7421
3617 9.4313 101(10) 100.1329 91.7208
3618 9.4333 99(10) 100.6535 91.6996
3619 9.4353 109(10) 101.7445 91.6783
3620 9.4373 97(10) 103.4957 91.6570
3621 9.4393 107(10) 105.9689 91.6358
3622 9.4413 105(10) 109.1420 91.6146
3623 9.4433 109(10) 112.8620 91.5933
3624 9.4453 114(11) 116.8190 91.5721
3625 9.4473 123(11) 120.5578 91.5509
3626 9.4493 121(11) 123.5325 91.5297
3627 9.4513 128(11) 125.2000 91.5085
3628 9.4533 120(11) 125.1834 91.4874
3629 9.4553 129(11) 123.4520 91.4662
3630 9.4573 116(11) 120.4049 91.4450
3631 9.4593 107(10) 116.7157 91.4239
3632 9.4613 104(10) 113.0363 91.4027
3633 9.4633 109(10) 109.8061 91.3816
3634 9.4653 110(11) 107.2116 91.3605
3635 9.4673 99(10) 105.2497 91.3394
3636 9.4693 103(10) 103.8242 91.3183
3637 9.4713 103(10) 102.7691 91.2972
3638 9.4733 108(10) 101.9110 91.2761
3639 9.4753 114(11) 101.0923 91.2551
3640 9.4773 105(10) 100.2044 91.2340
3641 9.4793 97(10) 99.2145 91.2129
3642 9.4813 100(10) 98.1664 91.1919
3643 9.4833 107(10) 97.1392 91.1709
3644 9.4853 101(10) 96.2002 91.1499
3645 9.4873 101(10) 95.3837 91.1288
3646 9.4893 102(10) 94.6969 91.1078
3647 9.4913 98(10) 94.1294 91.0869
3648 9.4933 95(10) 93.6650 91.0659
3649 9.4953 98(10) 93.2874 91.0449
3650 9.4973 90(9) 92.9820 91.0239
3651 9.4993 87(9) 92.7358 91.0030
3652 9.5013 90(9) 92.5372 90.9820
3653 9.5033 95(10) 92.3760 90.9611
3654 9.5053 111(11) 92.2429 90.9402
3655 9.5073 96(10) 92.1304 90.9193
3656 9.5093 97(10) 92.0327 90.8984
3657 9.5113 97(10) 91.9456 90.8775
3658 9.5133 90(9) 91.8663 90.8566
3659 9.5153 88(9) 91.7930 90.8357
3660 9.5173 96(10) 91.7246 90.8149
3661 9.5193 95(10) 91.6602 90.7940
3662 9.5213 93(10) 91.5994 90.7732
3663 9.5233 91(10) 91.5416 90.7523
3664 9.5253 92(10) 91.4867 90.7315
3665 9.5273 99(10) 91.4342 90.7107
3666 9.5293 91(10) 91.3840 90.6899
3667 9.5313 98(10) 91.3358 90.6691
3668 9.5333 94(10) 91.2894 90.6483
3669 9.5353 94(10) 91.1591 90.6275
3670 9.5373 92(10) 91.1179 90.6068
3671 9.5393 87(9) 91.0779 90.5860
3672 9.5413 96(10) 91.0390 90.5652
3673 9.5433 89(9) 91.0013 90.5445
3674 9.5453 99(10) 90.9646 90.5238
3675 9.5473 85(9) 91.3388 90.5031
3676 9.5493 91(10) 91.3131 90.4824
3677 9.5513 87(9) 91.2885 90.4616
3678 9.5533 93(10) 91.2579 90.4410
3679 9.5553 91(10) 91.2355 90.4203
3680 9.5573 90(9) 91.2141 90.3996
3681 9.5593 85(9) 91.1936 90.3790
3682 9.5613 96(10) 91.1741 90.3583
3683 9.5633 94(10) 91.1555 90.3377
3684 9.5653 87(9) 91.1377 90.3170
3685 9.5673 90(9) 91.1209 90.2964
3686 9.5693 84(9) 91.1050 90.2758
3687 9.5713 88(9) 90.9085 90.2552
3688 9.5733 92(10) 90.9679 90.2346
3689 9.5753 90(9) 90.9602 90.2140
3690 9.5773 90(9) 90.9534 90.1934
3691 9.5793 91(10) 90.9475 90.1729
3692 9.5813 93(10) 90.9424 90.1523
3693 9.5833 96(10) 90.9383 90.1318
3694 9.5853 92(10) 90.9351 90.1113
3695 9.5873 94(10) 90.9329 90.0907
3696 9.5893 97(10) 90.9317 90.0702
3697 9.5913 89(9) 90.9317 90.0497
3698 9.5933 95(10) 90.9554 90.0292
3699 9.5953 92(10) 90.9581 90.0087
3700 9.5973 93(10) 90.9621 89.9883
3701 9.5993 96(10) 90.9674 89.9678
3702 9.6013 95(10) 90.9742 89.9473
3703 9.6033 90(9) 90.9824 89.9269
3704 9.6053 94(10) 90.9922 89.9065
3705 9.6073 90(9) 91.0036 89.8860
3706 9.6093 91(10) 91.0168 89.8656
3707 9.6113 96(10) 91.0318 89.8452
3708 9.6133 101(10) 91.0489 89.8248
3709 9.6153 90(9) 91.0680 89.8044
3710 9.6173 100(10) 91.0895 89.7840
3711 9.6193 87(9) 91.1133 89.7637
3712 9.6213 95(10) 91.1398 89.7433
3713 9.6233 89(9) 91.1690 89.7230
3714 9.6253 90(9) 91.2013 89.7026
3715 9.6273 86(9) 91.2319 89.6823
3716 9.6293 92(10) 91.2381 89.6620
3717 9.6313 91(10) 91.2816 89.6417
3718 9.6333 91(10) 91.3292 89.6213
3719 9.6353 87(9) 91.3812 89.6011
3720 9.6373 93(10) 91.4379 89.5808
3721 9.6393 91(10) 91.4998 89.5605
3722 9.6413 94(10) 91.5682 89.5403
3723 9.6433 93(10) 91.6419 89.5200
3724 9.6453 99(10) 91.7225 89.4997
3725 9.6473 106(10) 91.8103 89.4795
3726 9.6493 95(10) 91.9064 89.4593
3727 9.6513 93(10) 92.0113 89.4391
3728 9.6533 92(10) 92.1195 89.4189
3729 9.6553 92(10) 92.2454 89.3987
3730 9.6573 96(10) 92.3834 89.3785
3731 9.6593 89(9) 92.5348 89.3583
3732 9.6613 92(10) 92.7009 89.3382
3733 9.6633 95(10) 92.8835 89.3180
3734 9.6653 97(10) 93.0844 89.2979
3735 9.6673 100(10) 93.3058 89.2777
3736 9.6693 99(10) 93.5502 89.2576
3737 9.6713 95(10) 93.8205 89.2375
3738 9.6733 90(10) 94.1205 89.2174
3739 9.6753 101(10) 94.4544 89.1973
3740 9.6773 94(10) 94.8281 89.1772
3741 9.6793 87(9) 95.2491 89.1571
3742 9.6813 98(10) 95.7277 89.1371
3743 9.6833 97(10) 96.2785 89.1170
3744 9.6853 96(10) 96.9229 89.0969
3745 9.6873 93(10) 97.6918 89.0769
3746 9.6893 105(10) 98.6345 89.0569
3747 9.6913 98(10) 99.8286 89.0369
3748 9.6933 97(10) 101.3989 89.0169
3749 9.6953 106(10) 103.5457 88.9969
3750 9.6973 111(11) 106.5845 88.9769
3751 9.6993 102(10) 110.9980 88.9569
3752 9.7013 114(11) 117.4772 88.9369
3753 9.7033 128(11) 126.9612 88.9170
3754 9.7053 122(11) 140.5978 88.8970
3755 9.7073 151(12) 159.6109 88.8771
3756 9.7093 156(12) 185.0289 88.8571
3757 9.7113 185(14) 217.3060 88.8372
3758 9.7133 218(15) 255.8107 88.8173
3759 9.7153 277(17) 298.5662 88.7974
3760 9.7173 332(18) 342.0839 88.7775
3761 9.7193 384(20) 381.6114 88.7576
3762 9.7213 448(21) 411.7316 88.7377
3763 9.7233 481(22) 427.3833 88.7179
3764 9.7253 492(22) 425.3983 88.6980
3765 9.7273 463(22) 406.3636 88.6782
3766 9.7293 413(20) 374.4052 88.6584
3767 9.7313 363(19) 336.3898 88.6385
3768 9.7333 309(18) 298.5725 88.6187
3769 9.7353 265(16) 265.1243 88.5989
3770 9.7373 219(15) 237.9674 88.5791
3771 9.7393 217(15) 217.3943 88.5593
3772 9.7413 187(14) 202.6375 88.5395
3773 9.7433 183(14) 192.4084 88.5198
3774 9.7453 178(13) 185.1913 88.5000
3775 9.7473 158(13) 179.4529 88.4803
3776 9.7493 153(12) 173.8499 88.4605
3777 9.7513 160(13) 167.4993 88.4408
3778 9.7533 141(12) 160.2340 88.4211
3779 9.7553 147(12) 152.5471 88.4014
3780 9.7573 137(12) 145.2208 88.3817
3781 9.7593 137(12) 138.8920 88.3620
3782 9.7613 140(12) 133.8473 88.3423
3783 9.7633 135(12) 130.0347 88.3227
3784 9.7653 136(12) 127.1664 88.3030
3785 9.7673 143(12) 124.8376 88.2833
3786 9.7693 136(12) 122.6198 88.2637
3787 9.7713 143(12) 120.1624 88.2441
3788 9.7733 135(12) 117.2893 88.2245
3789 9.7753 120(11) 114.0538 88.2049
3790 9.7773 124(11) 110.8575 88.1852
3791 9.7793 114(11) 107.6198 88.1657
3792 9.7813 106(10) 104.6992 88.1461
3793 9.7833 105(10) 102.1806 88.1265
3794 9.7853 101(10) 100.0701 88.1069
3795 9.7873 96(10) 98.3322 88.0874
3796 9.7893 102(10) 96.9167 88.0678
3797 9.7913 101(10) 95.7740 88.0483
3798 9.7933 95(10) 94.8611 88.0288
3799 9.7953 96(10) 94.1391 88.0093
3800 9.7973 92(10) 93.5742 87.9898
3801 9.7993 95(10) 93.1366 87.9703
3802 9.8013 106(10) 92.8011 87.9508
3803 9.8033 94(10) 92.5467 87.9313
3804 9.8053 91(10) 92.3573 87.9118
3805 9.8073 95(10) 92.2195 87.8924
3806 9.8093 92(10) 92.1213 87.8729
3807 9.8113 88(9) 92.0507 87.8535
3808 9.8133 90(9) 91.9947 87.8341
3809 9.8153 95(10) 91.9396 87.8147
3810 9.8173 87(9) 91.8718 87.7953
3811 9.8193 83(9) 91.7806 87.7759
3812 9.8213 92(10) 91.6614 87.7565
3813 9.8233 87(9) 91.5184 87.7371
3814 9.8253 93(10) 91.3631 87.7177
3815 9.8273 85(9) 91.2091 87.6984
3816 9.8293 95(10) 91.0674 87.6790
3817 9.8313 92(10) 90.9442 87.6597
3818 9.8333 88(9) 90.8419 87.6404
3819 9.8353 93(10) 90.7605 87.6210
3820 9.8373 98(10) 90.6990 87.6017
3821 9.8393 87(9) 90.7283 87.5824
3822 9.8413 94(10) 90.7040 87.5631
3823 9.8433 87(9) 90.6958 87.5439
3824 9.8453 102(10) 90.7029 87.5246
3825 9.8473 96(10) 90.7244 87.5053
3826 9.8493 92(10) 90.7602 87.4861
3827 9.8513 96(10) 90.8099 87.4668
3828 9.8533 103(10) 90.8740 87.4476
3829 9.8553 92(10) 90.9531 87.4284
3830 9.8573 95(10) 91.0485 87.4092
3831 9.8593 96(10) 91.1621 87.3900
3832 9.8613 92(10) 91.2965 87.3708
3833 9.8633 93(10) 91.4553 87.3516
3834 9.8653 92(10) 91.6439 87.3324
3835 9.8673 105(10) 91.8698 87.3133
3836 9.8693 102(10) 92.1444 87.2941
3837 9.8713 102(10) 92.4850 87.2749
3838 9.8733 109(10) 92.9190 87.2558
3839 9.8753 113(11) 93.4900 87.2367
3840 9.8773 106(10) 94.2671 87.2176
3841 9.8793 115(11) 95.3590 87.1985
3842 9.8813 108(10) 96.9306 87.1794
3843 9.8833 116(11) 99.2232 87.1603
3844 9.8853 131(11) 102.5618 87.1412
3845 9.8873 139(12) 107.3572 87.1221
3846 9.8893 143(12) 114.0650 87.1031
3847 9.8913 156(12) 123.1045 87.0840
3848 9.8933 176(13) 134.7290 87.0650
3849 9.8953 184(14) 148.8754 87.0460
3850 9.8973 199(14) 164.9915 87.0270
3851 9.8993 208(14) 181.9995 87.0079
3852 9.9013 212(15) 198.3015 86.9889
3853 9.9033 226(15) 211.9420 86.9699
3854 9.9053 211(15) 220.5387 86.9510
3855 9.9073 204(14) 223.1823 86.9320
3856 9.9093 207(14) 218.8779 86.9130
3857 9.9113 195(14) 208.4753 86.8941
3858 9.9133 188(14) 194.0708 86.8751
3859 9.9153 182(14) 178.1288 86.8562
3860 9.9173 166(13) 162.6332 86.8373
3861 9.9193 156(13) 148.7692 86.8184
3862 9.9213 165(13) 137.0316 86.7995
3863 9.9233 149(12) 127.5038 86.7806
3864 9.9253 152(12) 120.0532 86.7617
3865 9.9273 127(11) 114.5056 86.7428
3866 9.9293 138(12) 110.7196 86.7240
3867 9.9313 140(12) 108.5577 86.7051
3868 9.9333 131(11) 108.1816 86.6863
3869 9.9353 125(11) 109.6532 86.6674
3870 9.9373 137(12) 113.2085 86.6486
3871 9.9393 126(11) 119.1604 86.6298
3872 9.9413 131(11) 127.8169 86.6110
3873 9.9433 146(12) 139.3489 86.5922
3874 9.9453 161(13) 153.6243 86.5734
3875 9.9473 171(13) 170.0534 86.5546
3876 9.9493 185(14) 187.5093 86.5359
3877 9.9513 217(15) 204.3177 86.5171
3878 9.9533 263(16) 218.4368 86.4984
3879 9.9553 275(17) 227.8007 86.4796
3880 9.9573 274(17) 230.6537 86.4609
3881 9.9593 270(16) 226.2709 86.4422
3882 9.9613 262(16) 215.4242 86.4235
3883 9.9633 240(15) 200.2308 86.4048
3884 9.9653 215(15) 183.2399 86.3861
3885 9.9673 182(14) 166.5544 86.3674
3886 9.9693 159(13) 151.4570 86.3487
3887 9.9713 141(12) 138.5003 86.3301
3888 9.9733 129(11) 127.7629 86.3114
3889 9.9753 122(11) 119.1034 86.2928
3890 9.9773 113(11) 112.2309 86.2742
3891 9.9793 103(10) 106.9013 86.2555
3892 9.9813 106(10) 102.9293 86.2369
3893 9.9833 104(10) 99.9510 86.2183
3894 9.9853 94(10) 97.8157 86.1997
3895 9.9873 99(10) 96.3329 86.1812
3896 9.9893 95(10) 95.3487 86.1626
3897 9.9913 90(10) 94.7502 86.1440
3898 9.9933 93(10) 94.4739 86.1255
3899 9.9953 93(10) 94.5078 86.1069
3900 9.9973 93(10) 94.8928 86.0884
3901 9.9993 87(9) 95.7217 86.0699
3902 10.0013 98(10) 97.1368 86.0513
3903 10.0033 96(10) 99.3130 86.0328
3904 10.0053 96(10) 102.4383 86.0144
3905 10.0073 100(10) 106.6594 85.9959
3906 10.0093 107(10) 112.0253 85.9774
3907 10.0113 108(10) 118.4193 85.9589
3908 10.0133 120(11) 125.5132 85.9405
3909 10.0153 118(11) 132.7390 85.9220
3910 10.0173 145(12) 139.3444 85.9036
3911 10.0193 167(13) 144.4650 85.8852
3912 10.0213 177(13) 147.2724 85.8667
3913 10.0233 176(13) 147.1956 85.8483
3914 10.0253 172(13) 144.1784 85.8299
3915 10.0273 156(12) 138.7875 85.8115
3916 10.0293 134(12) 132.0178 85.7932
3917 10.0313 131(11) 124.8766 85.7748
3918 10.0333 123(11) 118.1030 85.7564
3919 10.0353 115(11) 112.1010 85.7381
3920 10.0373 98(10) 107.0141 85.7198
3921 10.0393 105(10) 102.8309 85.7014
3922 10.0413 96(10) 99.4666 85.6831
3923 10.0433 93(10) 96.8183 85.6648
3924 10.0453 96(10) 94.7779 85.6465
3925 10.0473 89(9) 93.3177 85.6282
3926 10.0493 93(10) 92.2000 85.6099
3927 10.0513 98(10) 91.4112 85.5916
3928 10.0533 90(9) 90.8783 85.5734
3929 10.0553 90(9) 90.5448 85.5551
3930 10.0573 91(10) 90.4524 85.5369
3931 10.0593 93(10) 90.4299 85.5187
3932 10.0613 78(9) 90.5648 85.5004
3933 10.0633 91(10) 90.8938 85.4822
3934 10.0653 85(9) 91.4829 85.4640
3935 10.0673 84(9) 92.4284 85.4458
3936 10.0693 83(9) 93.8503 85.4276
3937 10.0713 88(9) 95.8815 85.4095
3938 10.0733 91(10) 98.6403 85.3913
3939 10.0753 95(10) 102.1922 85.3731
3940 10.0773 107(10) 106.5048 85.3550
3941 10.0793 110(11) 111.4103 85.3369
3942 10.0813 108(10) 116.5758 85.3187
3943 10.0833 119(11) 121.5273 85.3006
3944 10.0853 126(11) 125.6861 85.2825
3945 10.0873 132(12) 128.4513 85.2644
3946 10.0893 138(12) 129.3294 85.2463
3947 10.0913 145(12) 128.1100 85.2282
3948 10.0933 134(12) 124.8418 85.2102
3949 10.0953 120(11) 120.4437 85.1921
3950 10.0973 119(11) 115.4789 85.1741
3951 10.0993 108(10) 110.5610 85.1560
3952 10.1013 100(10) 106.0760 85.1380
3953 10.1033 98(10) 102.2007 85.1200
3954 10.1053 92(10) 98.9710 85.1020
3955 10.1073 94(10) 96.3475 85.0840
3956 10.1093 103(10) 94.2647 85.0660
3957 10.1113 93(10) 92.6465 85.0480
3958 10.1133 88(9) 91.4208 85.0300
3959 10.1153 88(9) 90.5195 85.0121
3960 10.1173 87(9) 89.8794 84.9941
3961 10.1193 97(10) 89.4434 84.9762
3962 10.1213 96(10) 89.1635 84.9582
3963 10.1233 90(9) 89.0020 84.9403
3964 10.1253 88(9) 88.9333 84.9224
3965 10.1273 90(10) 88.9444 84.9045
3966 10.1293 90(9) 89.0344 84.8866
3967 10.1313 86(9) 89.2164 84.8687
3968 10.1333 87(9) 89.5190 84.8508
3969 10.1353 95(10) 89.9902 84.8330
3970 10.1373 88(9) 90.7035 84.8151
3971 10.1393 93(10) 91.7627 84.7973
3972 10.1413 94(10) 93.3053 84.7794
3973 10.1433 96(10) 95.3274 84.7616
3974 10.1453 93(10) 98.5845 84.7438
3975 10.1473 110(10) 102.6383 84.7260
3976 10.1493 112(11) 107.8314 84.7082
3977 10.1513 120(11) 114.1852 84.6904
3978 10.1533 113(11) 121.5617 84.6726
3979 10.1553 133(12) 129.6203 84.6549
3980 10.1573 134(12) 137.8031 84.6371
3981 10.1593 148(12) 145.3701 84.6193
3982 10.1613 146(12) 151.4804 84.6016
3983 10.1633 134(12) 155.3649 84.5839
3984 10.1653 132(12) 156.4815 84.5662
3985 10.1673 142(12) 154.6033 84.5485
3986 10.1693 128(11) 149.9750 84.5308
3987 10.1713 124(11) 143.2802 84.5131
3988 10.1733 125(11) 135.4920 84.4954
3989 10.1753 122(11) 127.5465 84.4777
3990 10.1773 109(10) 120.1240 84.4600
3991 10.1793 108(10) 113.5950 84.4424
3992 10.1813 108(10) 108.0872 84.4248
3993 10.1833 114(11) 103.5799 84.4071
3994 10.1853 106(10) 99.9795 84.3895
3995 10.1873 103(10) 97.1720 84.3719
3996 10.1893 101(10) 95.0365 84.3543
3997 10.1913 98(10) 93.4607 84.3367
3998 10.1933 98(10) 92.3420 84.3191
3999 10.1953 97(10) 91.5902 84.3015
4000 10.1973 94(10) 91.1301 84.2840
4001 10.1993 93(10) 90.9060 84.2664
4002 10.2013 95(10) 90.8856 84.2489
4003 10.2033 88(9) 91.0636 84.2313
4004 10.2053 94(10) 91.4653 84.2138
4005 10.2073 96(10) 92.1522 84.1963
4006 10.2093 101(10) 93.2264 84.1788
4007 10.2113 97(10) 94.7633 84.1613
4008 10.2133 105(10) 97.0959 84.1438
4009 10.2153 104(10) 100.3733 84.1263
4010 10.2173 108(10) 104.8167 84.1088
4011 10.2193 114(11) 110.6145 84.0914
4012 10.2213 123(11) 117.8648 84.0739
4013 10.2233 127(11) 126.5244 84.0565
4014 10.2253 143(12) 136.3706 84.0391
4015 10.2273 150(12) 146.9887 84.0217
4016 10.2293 170(13) 157.7590 84.0042
4017 10.2313 164(13) 167.9253 83.9868
4018 10.2333 193(14) 176.6675 83.9695
4019 10.2353 193(14) 183.2811 83.9521
4020 10.2373 196(14) 187.3674 83.9347
4021 10.2393 197(14) 188.8701 83.9173
4022 10.2413 199(14) 187.8831 83.9000
4023 10.2433 184(14) 184.4399 83.8826
4024 10.2453 177(13) 178.5217 83.8653
4025 10.2473 168(13) 170.2967 83.8480
4026 10.2493 162(13) 160.3405 83.8307
4027 10.2513 147(12) 149.5735 83.8134
4028 10.2533 141(12) 138.9511 83.7961
4029 10.2553 133(12) 129.2037 83.7788
4030 10.2573 124(11) 120.7174 83.7615
4031 10.2593 122(11) 113.6079 83.7443
4032 10.2613 100(10) 107.8166 83.7270
4033 10.2633 105(10) 103.1978 83.7098
4034 10.2653 98(10) 99.5789 83.6925
4035 10.2673 102(10) 96.7899 83.6753
4036 10.2693 93(10) 94.6803 83.6581
4037 10.2713 92(10) 93.1137 83.6409
4038 10.2733 85(9) 91.9724 83.6237
4039 10.2753 88(9) 91.1561 83.6065
4040 10.2773 97(10) 90.5821 83.5893
4041 10.2793 82(9) 90.1349 83.5722
4042 10.2813 85(9) 89.8695 83.5550
4043 10.2833 95(10) 89.7018 83.5378
4044 10.2853 81(9) 89.6114 83.5207
4045 10.2873 91(10) 89.5874 83.5036
4046 10.2893 87(9) 89.6266 83.4865
4047 10.2913 86(9) 89.7315 83.4693
4048 10.2933 81(9) 89.9111 83.4522
4049 10.2953 84(9) 90.1815 83.4352
4050 10.2973 83(9) 90.5703 83.4181
4051 10.2993 84(9) 91.1217 83.4010
4052 10.3013 88(9) 91.9060 83.3839
4053 10.3033 90(9) 93.0328 83.3669
4054 10.3053 94(10) 94.6679 83.3498
4055 10.3073 92(10) 97.0538 83.3328
4056 10.3093 95(10) 100.5208 83.3158
4057 10.3113 103(10) 105.4978 83.2988
4058 10.3133 100(10) 112.4869 83.2818
4059 10.3153 114(11) 122.0030 83.2648
4060 10.3173 122(11) 134.4664 83.2478
4061 10.3193 131(11) 150.0617 83.2308
4062 10.3213 143(12) 168.5426 83.2139
4063 10.3233 174(13) 189.1449 83.1969
4064 10.3253 198(14) 210.5061 83.1800
4065 10.3273 227(15) 230.7322 83.1630
4066 10.3293 257(16) 247.5778 83.1461
4067 10.3313 278(17) 258.7591 83.1292
4068 10.3333 293(17) 262.4427 83.1123
4069 10.3353 281(17) 257.9167 83.0954
4070 10.3373 267(16) 245.9960 83.0785
4071 10.3393 247(16) 228.9798 83.0616
4072 10.3413 207(14) 209.6695 83.0447
4073 10.3433 187(14) 190.4480 83.0279
4074 10.3453 170(13) 172.8253 83.0110
4075 10.3473 148(12) 157.5320 82.9942
4076 10.3493 144(12) 144.6223 82.9774
4077 10.3513 133(12) 133.8832 82.9605
4078 10.3533 119(11) 125.0233 82.9437
4079 10.3553 107(10) 117.6747 82.9269
4080 10.3573 104(10) 111.4970 82.9101
4081 10.3593 100(10) 106.4294 82.8934
4082 10.3613 102(10) 102.2807 82.8766
4083 10.3633 94(10) 98.9349 82.8598
4084 10.3653 93(10) 96.2715 82.8431
4085 10.3673 96(10) 94.1644 82.8263
4086 10.3693 93(10) 92.4940 82.8096
4087 10.3713 87(9) 91.1581 82.7929
4088 10.3733 87(9) 90.0762 82.7762
4089 10.3753 86(9) 89.1904 82.7595
4090 10.3773 95(10) 88.4575 82.7428
4091 10.3793 90(10) 87.8469 82.7261
4092 10.3813 92(10) 87.3351 82.7094
4093 10.3833 81(9) 86.9034 82.6927
4094 10.3853 85(9) 86.5361 82.6761
4095 10.3873 91(10) 86.2209 82.6594
4096 10.3893 87(9) 85.9468 82.6428
4097 10.3913 82(9) 85.7519 82.6262
4098 10.3933 78(9) 85.5384 82.6096
4099 10.3953 86(9) 85.3466 82.5930
4100 10.3973 86(9) 85.1731 82.5764
4101 10.3993 85(9) 85.0150 82.5598
4102 10.4013 86(9) 84.8703 82.5432
4103 10.4033 81(9) 84.7374 82.5266
4104 10.4053 82(9) 84.6148 82.5101
4105 10.4073 83(9) 84.5015 82.4935
4106 10.4093 83(9) 84.3964 82.4770
4107 10.4113 79(9) 84.2987 82.4604
4108 10.4133 77(9) 84.2434 82.4439
4109 10.4153 76(9) 84.1593 82.4274
4110 10.4173 80(9) 84.0807 82.4109
4111 10.4193 84(9) 84.0071 82.3944
4112 10.4213 86(9) 83.9381 82.3780
4113 10.4233 78(9) 83.8735 82.3615
4114 10.4253 89(9) 83.8127 82.3450
4115 10.4273 83(9) 83.6849 82.3286
4116 10.4293 80(9) 83.6326 82.3121
4117 10.4313 76(9) 83.5835 82.2957
4118 10.4333 84(9) 83.5374 82.2793
4119 10.4353 78(9) 83.4940 82.2629
4120 10.4373 83(9) 83.3750 82.2465
4121 10.4393 85(9) 83.3384 82.2301
4122 10.4413 79(9) 83.3043 82.2137
4123 10.4433 76(9) 83.2724 82.1973
4124 10.4453 80(9) 83.2427 82.1809
4125 10.4473 77(9) 83.2152 82.1646
4126 10.4493 82(9) 83.1899 82.1482
4127 10.4513 83(9) 83.1667 82.1319
4128 10.4533 83(9) 83.1457 82.1156
4129 10.4553 76(9) 83.1268 82.0993
4130 10.4573 78(9) 83.1101 82.0829
4131 10.4593 76(9) 83.0956 82.0667
4132 10.4613 79(9) 83.0835 82.0504
4133 10.4633 82(9) 83.0736 82.0341
4134 10.4653 71(8) 83.0663 82.0178
4135 10.4673 76(9) 83.0615 82.0015
4136 10.4693 82(9) 83.0596 81.9853
4137 10.4713 84(9) 83.0605 81.9691
4138 10.4733 78(9) 83.0646 81.9528
4139 10.4753 82(9) 83.0721 81.9366
4140 10.4773 81(9) 83.0834 81.9204
4141 10.4793 85(9) 83.0990 81.9042
4142 10.4813 83(9) 83.1194 81.8880
4143 10.4833 79(9) 83.1454 81.8718
4144 10.4853 80(9) 83.1780 81.8557
4145 10.4873 80(9) 83.2188 81.8395
4146 10.4893 78(9) 83.2699 81.8233
4147 10.4913 77(9) 83.3346 81.8072
4148 10.4933 80(9) 83.4343 81.7911
4149 10.4953 82(9) 83.5439 81.7749
4150 10.4973 79(9) 83.6908 81.7588
4151 10.4993 87(9) 83.8924 81.7427
4152 10.5013 81(9) 84.1737 81.7266
4153 10.5033 77(9) 84.5700 81.7105
4154 10.5053 77(9) 85.1276 81.6945
4155 10.5073 82(9) 85.9047 81.6784
4156 10.5093 81(9) 86.9676 81.6624
4157 10.5113 81(9) 88.3829 81.6463
4158 10.5133 86(9) 90.2064 81.6303
4159 10.5153 87(9) 92.4675 81.6142
4160 10.5173 95(10) 95.1561 81.5982
4161 10.5193 101(10) 98.2059 81.5822
4162 10.5213 100(10) 101.4968 81.5662
4163 10.5233 106(10) 104.8530 81.5502
4164 10.5253 103(10) 108.0538 81.5342
4165 10.5273 104(10) 110.6408 81.5183
4166 10.5293 119(11) 112.8304 81.5023
4167 10.5313 110(10) 114.2633 81.4864
4168 10.5333 114(11) 114.9135 81.4704
4169 10.5353 121(11) 114.8379 81.4545
4170 10.5373 112(11) 114.0967 81.4386
4171 10.5393 109(10) 112.7095 81.4227
4172 10.5413 115(11) 110.6831 81.4068
4173 10.5433 116(11) 108.0841 81.3909
4174 10.5453 112(11) 105.1288 81.3750
4175 10.5473 101(10) 102.0008 81.3591
4176 10.5493 98(10) 98.9818 81.3433
4177 10.5513 94(10) 96.2850 81.3274
4178 10.5533 90(9) 94.0139 81.3116
4179 10.5553 88(9) 92.2218 81.2957
4180 10.5573 91(10) 90.9295 81.2799
4181 10.5593 84(9) 90.1526 81.2641
4182 10.5613 89(9) 89.9156 81.2483
4183 10.5633 91(10) 90.2617 81.2325
4184 10.5653 93(10) 91.2507 81.2167
4185 10.5673 92(10) 92.9384 81.2009
4186 10.5693 97(10) 95.3666 81.1851
4187 10.5713 100(10) 98.5224 81.1694
4188 10.5733 106(10) 102.3192 81.1536
4189 10.5753 106(10) 106.5998 81.1379
4190 10.5773 114(11) 111.0261 81.1222
4191 10.5793 119(11) 115.2581 81.1065
4192 10.5813 108(10) 118.8846 81.0908
4193 10.5833 109(10) 121.5139 81.0750
4194 10.5853 108(10) 122.8618 81.0594
4195 10.5873 107(10) 122.8766 81.0437
4196 10.5893 113(11) 121.8089 81.0280
4197 10.5913 107(10) 120.1581 81.0124
4198 10.5933 104(10) 118.4868 80.9967
4199 10.5953 107(10) 117.2255 80.9811
4200 10.5973 117(11) 116.5735 80.9654
4201 10.5993 111(11) 116.4912 80.9498
4202 10.6013 115(11) 116.7537 80.9342
4203 10.6033 109(10) 117.0183 80.9186
4204 10.6053 109(10) 116.8998 80.9030
4205 10.6073 105(10) 116.0551 80.8874
4206 10.6093 108(10) 114.2809 80.8718
4207 10.6113 104(10) 111.5997 80.8563
4208 10.6133 103(10) 108.2545 80.8407
4209 10.6153 96(10) 104.6056 80.8252
4210 10.6173 103(10) 100.9920 80.8096
4211 10.6193 99(10) 97.6496 80.7941
4212 10.6213 93(10) 94.7009 80.7786
4213 10.6233 87(9) 92.1815 80.7631
4214 10.6253 80(9) 90.0797 80.7476
4215 10.6273 77(9) 88.3559 80.7321
4216 10.6293 80(9) 86.9638 80.7166
4217 10.6313 81(9) 85.8570 80.7012
4218 10.6333 78(9) 84.9913 80.6857
4219 10.6353 84(9) 84.3247 80.6702
4220 10.6373 78(9) 83.8188 80.6548
4221 10.6393 79(9) 83.4382 80.6394
4222 10.6413 70(8) 83.1525 80.6240
4223 10.6433 85(9) 82.9367 80.6086
4224 10.6453 82(9) 82.7719 80.5932
4225 10.6473 81(9) 82.6447 80.5778
4226 10.6493 78(9) 82.5463 80.5624
4227 10.6513 82(9) 82.4721 80.5470
4228 10.6533 84(9) 82.4208 80.5317
4229 10.6553 74(9) 82.3939 80.5163
4230 10.6573 79(9) 82.3963 80.5010
4231 10.6593 76(9) 82.4366 80.4856
4232 10.6613 73(9) 82.5285 80.4703
4233 10.6633 79(9) 82.6908 80.4550
4234 10.6653 78(9) 82.9492 80.4397
4235 10.6673 74(9) 83.3346 80.4244
4236 10.6693 80(9) 83.8815 80.4091
4237 10.6713 79(9) 84.6224 80.3938
4238 10.6733 85(9) 85.5800 80.3786
4239 10.6753 78(9) 86.7580 80.3633
4240 10.6773 76(9) 88.1286 80.3481
4241 10.6793 84(9) 89.6295 80.3328
4242 10.6813 89(9) 91.1601 80.3176
4243 10.6833 86(9) 92.5870 80.3024
4244 10.6853 86(9) 93.7568 80.2872
4245 10.6873 88(9) 94.5168 80.2720
4246 10.6893 92(10) 94.7456 80.2568
4247 10.6913 92(10) 94.3967 80.2416
4248 10.6933 87(9) 93.5268 80.2264
4249 10.6953 85(9) 92.2856 80.2113
4250 10.6973 79(9) 90.8616 80.1961
4251 10.6993 87(9) 89.4224 80.1810
4252 10.7013 81(9) 88.0837 80.1659
4253 10.7033 84(9) 86.9115 80.1507
4254 10.7053 80(9) 85.9324 80.1356
4255 10.7073 80(9) 85.1526 80.1205
4256 10.7093 86(9) 84.5704 80.1054
4257 10.7113 86(9) 84.1855 80.0904
4258 10.7133 79(9) 84.0046 80.0753
4259 10.7153 78(9) 84.0454 80.0602
4260 10.7173 74(9) 84.3390 80.0452
4261 10.7193 82(9) 84.9307 80.0301
4262 10.7213 85(9) 85.8773 80.0151
4263 10.7233 81(9) 87.2401 80.0001
4264 10.7253 83(9) 89.0713 79.9851
4265 10.7273 83(9) 91.3719 79.9700
4266 10.7293 91(10) 94.1725 79.9551
4267 10.7313 91(10) 97.3378 79.9401
4268 10.7333 91(10) 100.7042 79.9251
4269 10.7353 99(10) 104.0242 79.9101
4270 10.7373 101(10) 106.9937 79.8952
4271 10.7393 102(10) 109.2621 79.8802
4272 10.7413 117(11) 110.5810 79.8653
4273 10.7433 121(11) 110.7400 79.8504
4274 10.7453 112(11) 109.7521 79.8354
4275 10.7473 114(11) 107.8612 79.8205
4276 10.7493 108(10) 105.4753 79.8056
4277 10.7513 106(10) 103.0342 79.7907
4278 10.7533 98(10) 100.8987 79.7759
4279 10.7553 91(10) 99.3114 79.7610
4280 10.7573 89(9) 98.3949 79.7461
4281 10.7593 83(9) 98.1761 79.7313
4282 10.7613 91(10) 98.6017 79.7164
4283 10.7633 96(10) 99.5503 79.7016
4284 10.7653 93(10) 100.8425 79.6868
4285 10.7673 92(10) 102.2531 79.6720
4286 10.7693 97(10) 103.5228 79.6572
4287 10.7713 107(10) 104.3830 79.6424
4288 10.7733 101(10) 104.5902 79.6276
4289 10.7753 110(10) 103.9857 79.6128
4290 10.7773 102(10) 102.5587 79.5981
4291 10.7793 99(10) 100.4648 79.5833
4292 10.7813 101(10) 97.9733 79.5685
4293 10.7833 93(10) 95.3624 79.5538
4294 10.7853 80(9) 92.8040 79.5391
4295 10.7873 86(9) 90.5212 79.5244
4296 10.7893 86(9) 88.5276 79.5097
4297 10.7913 77(9) 86.8345 79.4950
4298 10.7933 85(9) 85.4252 79.4803
4299 10.7953 82(9) 84.2733 79.4656
4300 10.7973 71(8) 83.3460 79.4509
4301 10.7993 78(9) 82.6110 79.4363
4302 10.8013 76(9) 82.0371 79.4216
4303 10.8033 86(9) 81.5945 79.4070
4304 10.8053 73(9) 81.2556 79.3924
4305 10.8073 79(9) 80.9960 79.3777
4306 10.8093 79(9) 80.7607 79.3631
4307 10.8113 77(9) 80.6027 79.3485
4308 10.8133 81(9) 80.4742 79.3339
4309 10.8153 78(9) 80.3664 79.3194
4310 10.8173 74(9) 80.2732 79.3048
4311 10.8193 81(9) 80.1906 79.2902
4312 10.8213 80(9) 80.1162 79.2757
4313 10.8233 77(9) 80.0482 79.2611
4314 10.8253 81(9) 79.9857 79.2466
4315 10.8273 80(9) 79.9279 79.2321
4316 10.8293 75(9) 79.9319 79.2175
4317 10.8313 81(9) 79.8832 79.2030
4318 10.8333 73(9) 79.8377 79.1885
4319 10.8353 77(9) 79.7953 79.1740
4320 10.8373 85(9) 79.7556 79.1596
4321 10.8393 79(9) 79.7184 79.1451
4322 10.8413 77(9) 79.6834 79.1307
4323 10.8433 70(8) 79.6504 79.1162
4324 10.8453 82(9) 79.6193 79.1018
4325 10.8473 76(9) 79.5898 79.0873
4326 10.8493 78(9) 79.5619 79.0729
4327 10.8513 79(9) 79.5354 79.0585
4328 10.8533 81(9) 79.5102 79.0441
4329 10.8553 82(9) 79.4863 79.0297
4330 10.8573 75(9) 79.4636 79.0154
4331 10.8593 81(9) 79.4419 79.0010
4332 10.8613 73(9) 79.4214 78.9866
4333 10.8633 80(9) 79.4020 78.9723
4334 10.8653 70(8) 79.3836 78.9579
4335 10.8673 75(9) 79.3662 78.9436
4336 10.8693 76(9) 79.3498 78.9293
4337 10.8713 73(9) 79.3345 78.9149
4338 10.8733 78(9) 79.3202 78.9006
4339 10.8753 78(9) 79.3071 78.8864
4340 10.8773 77(9) 79.2951 78.8721
4341 10.8793 78(9) 79.3562 78.8578
4342 10.8813 76(9) 79.3483 78.8435
4343 10.8833 81(9) 79.3420 78.8293
4344 10.8853 80(9) 79.3376 78.8150
4345 10.8873 76(9) 79.3355 78.8008
4346 10.8893 71(8) 79.3364 78.7866
4347 10.8913 77(9) 79.3246 78.7723
4348 10.8933 80(9) 79.3347 78.7581
4349 10.8953 76(9) 79.3519 78.7439
4350 10.8973 76(9) 79.3794 78.7298
4351 10.8993 79(9) 79.4218 78.7156
4352 10.9013 85(9) 79.4858 78.7014
4353 10.9033 74(9) 79.5806 78.6872
4354 10.9053 80(9) 79.7185 78.6731
4355 10.9073 78(9) 79.9143 78.6590
4356 10.9093 80(9) 80.1852 78.6448
4357 10.9113 81(9) 80.5479 78.6307
4358 10.9133 80(9) 81.0155 78.6166
4359 10.9153 79(9) 81.5933 78.6025
4360 10.9173 84(9) 82.2740 78.5884
4361 10.9193 86(9) 83.0340 78.5743
4362 10.9213 81(9) 83.8310 78.5602
4363 10.9233 83(9) 84.6062 78.5462
4364 10.9253 87(9) 85.2878 78.5321
4365 10.9273 86(9) 85.7980 78.5181
4366 10.9293 87(9) 86.0673 78.5040
4367 10.9313 85(9) 86.0502 78.4900
4368 10.9333 85(9) 85.7476 78.4760
4369 10.9353 81(9) 85.2022 78.4620
4370 10.9373 90(10) 84.5010 78.4480
4371 10.9393 78(9) 83.7463 78.4340
4372 10.9413 86(9) 82.9912 78.4200
4373 10.9433 77(9) 82.2936 78.4061
4374 10.9453 77(9) 81.6421 78.3921
4375 10.9473 73(9) 81.1164 78.3782
4376 10.9493 76(9) 80.6781 78.3642
4377 10.9513 80(9) 80.3201 78.3503
4378 10.9533 74(9) 80.0342 78.3364
4379 10.9553 69(8) 79.8107 78.3225
4380 10.9573 77(9) 79.6405 78.3086
4381 10.9593 83(9) 79.5147 78.2947
4382 10.9613 78(9) 79.4250 78.2808
4383 10.9633 70(8) 79.3638 78.2669
4384 10.9653 78(9) 79.3246 78.2531
4385 10.9673 76(9) 79.3004 78.2392
4386 10.9693 77(9) 79.2907 78.2254
4387 10.9713 79(9) 79.2909 78.2115
4388 10.9733 70(8) 79.2993 78.1977
4389 10.9753 72(9) 79.3146 78.1839
4390 10.9773 69(8) 79.3367 78.1701
4391 10.9793 77(9) 79.3388 78.1563
4392 10.9813 73(9) 79.3751 78.1425
4393 10.9833 74(9) 79.4192 78.1287
4394 10.9853 77(9) 79.4722 78.1150
4395 10.9873 81(9) 79.5357 78.1012
4396 10.9893 72(8) 79.6123 78.0875
4397 10.9913 77(9) 79.7054 78.0737
4398 10.9933 72(8) 79.8204 78.0600
4399 10.9953 77(9) 79.9651 78.0463
4400 10.9973 77(9) 80.1517 78.0326
4401 10.9993 74(9) 80.3985 78.0189
4402 11.0013 74(9) 80.7324 78.0052
4403 11.0033 82(9) 81.1930 77.9915
4404 11.0053 75(9) 81.8344 77.9778
4405 11.0073 80(9) 82.7294 77.9642
4406 11.0093 81(9) 83.9689 77.9505
4407 11.0113 85(9) 85.6575 77.9369
4408 11.0133 82(9) 87.9032 77.9232
4409 11.0153 92(10) 90.7984 77.9096
4410 11.0173 95(10) 94.3960 77.8960
4411 11.0193 97(10) 98.6736 77.8824
4412 11.0213 98(10) 103.5171 77.8688
4413 11.0233 114(11) 108.6989 77.8552
4414 11.0253 107(10) 113.8803 77.8417
4415 11.0273 131(11) 118.6316 77.8281
4416 11.0293 125(11) 122.4731 77.8145
4417 11.0313 137(12) 124.9320 77.8010
4418 11.0333 134(12) 125.6503 77.7875
4419 11.0353 132(11) 124.4980 77.7739
4420 11.0373 142(12) 121.6593 77.7604
4421 11.0393 135(12) 117.5966 77.7469
4422 11.0413 117(11) 112.8941 77.7334
4423 11.0433 104(10) 108.0814 77.7199
4424 11.0453 100(10) 103.5477 77.7064
4425 11.0473 108(10) 99.5205 77.6930
4426 11.0493 103(10) 96.1125 77.6795
4427 11.0513 93(10) 93.3677 77.6661
4428 11.0533 90(9) 91.3005 77.6526
4429 11.0553 97(10) 89.9244 77.6392
4430 11.0573 89(9) 89.2668 77.6257
4431 11.0593 93(10) 89.3770 77.6123
4432 11.0613 84(9) 90.3221 77.5989
4433 11.0633 91(10) 92.1777 77.5855
4434 11.0653 102(10) 95.0080 77.5722
4435 11.0673 106(10) 98.8377 77.5588
4436 11.0693 109(10) 103.6211 77.5454
4437 11.0713 118(11) 109.2002 77.5321
4438 11.0733 107(10) 115.2976 77.5187
4439 11.0753 128(11) 121.5044 77.5054
4440 11.0773 122(11) 127.3011 77.4921
4441 11.0793 116(11) 132.0999 77.4787
4442 11.0813 116(11) 135.3141 77.4654
4443 11.0833 130(11) 136.4665 77.4521
4444 11.0853 117(11) 135.3304 77.4389
4445 11.0873 116(11) 132.0517 77.4256
4446 11.0893 122(11) 127.1339 77.4123
4447 11.0913 112(11) 121.2710 77.3990
4448 11.0933 109(10) 115.1293 77.3858
4449 11.0953 110(10) 109.2053 77.3726
4450 11.0973 111(11) 103.8125 77.3593
4451 11.0993 106(10) 99.0778 77.3461
4452 11.1013 106(10) 95.0404 77.3329
4453 11.1033 102(10) 91.6731 77.3197
4454 11.1053 98(10) 88.9200 77.3065
4455 11.1073 93(10) 86.7148 77.2933
4456 11.1093 89(9) 84.9893 77.2801
4457 11.1113 84(9) 83.7046 77.2670
4458 11.1133 90(9) 82.7506 77.2538
4459 11.1153 83(9) 82.0990 77.2407
4460 11.1173 86(9) 81.7065 77.2275
4461 11.1193 82(9) 81.5414 77.2144
4462 11.1213 83(9) 81.5828 77.2013
4463 11.1233 83(9) 81.8188 77.1882
4464 11.1253 78(9) 82.2416 77.1751
4465 11.1273 85(9) 82.8418 77.1620
4466 11.1293 88(9) 83.6015 77.1489
4467 11.1313 84(9) 84.4887 77.1359
4468 11.1333 79(9) 85.4524 77.1228
4469 11.1353 87(9) 86.4230 77.1098
4470 11.1373 90(10) 87.3051 77.0967
4471 11.1393 94(10) 88.0246 77.0837
4472 11.1413 87(9) 88.4859 77.0707
4473 11.1433 87(9) 88.6228 77.0577
4474 11.1453 83(9) 88.4019 77.0447
4475 11.1473 88(9) 87.8344 77.0317
4476 11.1493 84(9) 86.9803 77.0187
4477 11.1513 84(9) 85.9384 77.0057
4478 11.1533 80(9) 84.8169 76.9927
4479 11.1553 89(9) 83.7082 76.9798
4480 11.1573 85(9) 82.6750 76.9669
4481 11.1593 81(9) 81.7515 76.9539
4482 11.1613 74(9) 80.9500 76.9410
4483 11.1633 85(9) 80.2702 76.9281
4484 11.1653 78(9) 79.7033 76.9152
4485 11.1673 89(9) 79.2375 76.9023
4486 11.1693 79(9) 78.8598 76.8894
4487 11.1713 73(9) 78.5574 76.8765
4488 11.1733 72(8) 78.3175 76.8636
4489 11.1753 78(9) 78.1287 76.8508
4490 11.1773 75(9) 77.9798 76.8379
4491 11.1793 78(9) 77.8617 76.8251
4492 11.1813 79(9) 77.7665 76.8123
4493 11.1833 81(9) 77.6879 76.7994
4494 11.1853 75(9) 77.6214 76.7866
4495 11.1873 77(9) 77.5635 76.7738
4496 11.1893 79(9) 77.5119 76.7610
4497 11.1913 81(9) 77.4651 76.7482
4498 11.1933 79(9) 77.4220 76.7355
4499 11.1953 82(9) 77.3820 76.7227
4500 11.1973 84(9) 77.3446 76.7100
4501 11.1993 76(9) 77.3113 76.6972
4502 11.2013 71(8) 77.2784 76.6845
4503 11.2033 79(9) 77.2474 76.6717
4504 11.2053 76(9) 77.2182 76.6590
4505 11.2073 73(9) 77.1906 76.6463
4506 11.2093 77(9) 77.1644 76.6336
4507 11.2113 73(9) 77.1397 76.6209
4508 11.2133 75(9) 77.1163 76.6083
4509 11.2153 72(8) 77.0941 76.5956
4510 11.2173 74(9) 77.0731 76.5829
4511 11.2193 73(9) 77.0531 76.5703
4512 11.2213 75(9) 77.0342 76.5577
4513 11.2233 87(9) 77.0294 76.5450
4514 11.2253 72(9) 77.0126 76.5324
4515 11.2273 83(9) 76.9968 76.5198
4516 11.2293 72(9) 76.9819 76.5072
4517 11.2313 80(9) 76.9679 76.4946
4518 11.2333 79(9) 76.9549 76.4820
4519 11.2353 73(9) 76.9702 76.4694
4520 11.2373 72(8) 76.9597 76.4569
4521 11.2393 75(9) 76.9502 76.4443
4522 11.2413 74(9) 76.9418 76.4318
4523 11.2433 79(9) 76.9368 76.4192
4524 11.2453 82(9) 76.9329 76.4067
4525 11.2473 74(9) 76.9302 76.3942
4526 11.2493 76(9) 76.9289 76.3817
4527 11.2513 83(9) 76.9291 76.3692
4528 11.2533 71(8) 76.9309 76.3567
4529 11.2553 71(8) 76.9344 76.3442
4530 11.2573 69(8) 76.9398 76.3317
4531 11.2593 70(8) 76.9475 76.3193
4532 11.2613 72(8) 76.9576 76.3069
4533 11.2633 78(9) 76.9707 76.2944
4534 11.2653 75(9) 76.9874 76.2820
4535 11.2673 77(9) 77.0086 76.2696
4536 11.2693 76(9) 77.0354 76.2571
4537 11.2713 80(9) 77.0696 76.2448
4538 11.2733 74(9) 77.1138 76.2324
4539 11.2753 73(9) 77.1718 76.2200
4540 11.2773 73(9) 77.2488 76.2076
4541 11.2793 71(8) 77.3521 76.1952
4542 11.2813 78(9) 77.4916 76.1829
4543 11.2833 85(9) 77.6800 76.1705
4544 11.2853 78(9) 77.9332 76.1582
4545 11.2873 78(9) 78.2699 76.1459
4546 11.2893 78(9) 78.7115 76.1336
4547 11.2913 76(9) 79.2803 76.1212
4548 11.2933 79(9) 79.9995 76.1089
4549 11.2953 70(8) 80.8197 76.0967
4550 11.2973 82(9) 81.8991 76.0844
4551 11.2993 86(9) 83.1785 76.0721
4552 11.3013 78(9) 84.6597 76.0599
4553 11.3033 91(10) 86.3303 76.0476
4554 11.3053 87(9) 88.1599 76.0354
4555 11.3073 90(10) 90.0932 76.0231
4556 11.3093 97(10) 92.0577 76.0109
4557 11.3113 98(10) 94.0114 75.9987
4558 11.3133 99(10) 95.7556 75.9865
4559 11.3153 101(10) 97.2137 75.9743
4560 11.3173 108(10) 98.2445 75.9621
4561 11.3193 105(10) 98.7046 75.9499
4562 11.3213 99(10) 98.4835 75.9378
4563 11.3233 104(10) 97.5520 75.9256
4564 11.3253 103(10) 95.9935 75.9135
4565 11.3273 98(10) 93.9898 75.9013
4566 11.3293 93(10) 91.7643 75.8892
4567 11.3313 87(9) 89.5188 75.8771
4568 11.3333 93(10) 87.3973 75.8650
4569 11.3353 85(9) 85.4860 75.8529
4570 11.3373 82(9) 83.8199 75.8408
4571 11.3393 86(9) 82.4032 75.8287
4572 11.3413 84(9) 81.2222 75.8167
4573 11.3433 91(10) 80.2546 75.8046
4574 11.3453 76(9) 79.4748 75.7925
4575 11.3473 82(9) 78.8577 75.7805
4576 11.3493 77(9) 78.3779 75.7685
4577 11.3513 75(9) 78.0084 75.7564
4578 11.3533 75(9) 77.7333 75.7444
4579 11.3553 72(8) 77.5297 75.7324
4580 11.3573 73(9) 77.3707 75.7204
4581 11.3593 76(9) 77.2632 75.7085
4582 11.3613 75(9) 77.1867 75.6965
4583 11.3633 79(9) 77.1337 75.6845
4584 11.3653 78(9) 77.0992 75.6725
4585 11.3673 74(9) 77.0803 75.6606
4586 11.3693 80(9) 77.0749 75.6487
4587 11.3713 74(9) 77.0820 75.6367
4588 11.3733 75(9) 77.1005 75.6248
4589 11.3753 75(9) 77.1296 75.6129
4590 11.3773 75(9) 77.1681 75.6010
4591 11.3793 72(8) 77.2147 75.5891
4592 11.3813 76(9) 77.2685 75.5772
4593 11.3833 75(9) 77.3287 75.5654
4594 11.3853 77(9) 77.3954 75.5535
4595 11.3873 74(9) 77.4699 75.5416
4596 11.3893 72(8) 77.5555 75.5298
4597 11.3913 72(8) 77.6571 75.5180
4598 11.3933 81(9) 77.7807 75.5061
4599 11.3953 80(9) 77.9321 75.4943
4600 11.3973 79(9) 78.1153 75.4825
4601 11.3993 80(9) 78.3321 75.4707
4602 11.4013 74(9) 78.5823 75.4589
4603 11.4033 80(9) 78.8647 75.4472
4604 11.4053 77(9) 79.1785 75.4354
4605 11.4073 79(9) 79.5264 75.4236
4606 11.4093 82(9) 79.9163 75.4119
4607 11.4113 83(9) 80.3925 75.4002
4608 11.4133 78(9) 80.9336 75.3884
4609 11.4153 80(9) 81.6122 75.3767
4610 11.4173 84(9) 82.4890 75.3650
4611 11.4193 86(9) 83.6334 75.3533
4612 11.4213 86(9) 85.1166 75.3416
4613 11.4233 97(10) 87.0050 75.3299
4614 11.4253 96(10) 89.3576 75.3183
4615 11.4273 102(10) 92.2177 75.3066
4616 11.4293 103(10) 95.6157 75.2949
4617 11.4313 107(10) 99.5594 75.2833
4618 11.4333 111(11) 104.0277 75.2717
4619 11.4353 119(11) 108.9643 75.2600
4620 11.4373 128(11) 114.2787 75.2484
4621 11.4393 138(12) 119.8372 75.2368
4622 11.4413 139(12) 125.4745 75.2252
4623 11.4433 143(12) 130.9660 75.2136
4624 11.4453 149(12) 136.0130 75.2020
4625 11.4473 158(13) 140.2513 75.1905
4626 11.4493 152(12) 143.3005 75.1789
4627 11.4513 160(13) 144.8321 75.1674
4628 11.4533 145(12) 144.6206 75.1558
4629 11.4553 128(11) 142.5812 75.1443
4630 11.4573 125(11) 138.8022 75.1328
4631 11.4593 118(11) 133.5783 75.1213
4632 11.4613 124(11) 127.3845 75.1098
4633 11.4633 116(11) 120.7652 75.0983
4634 11.4653 114(11) 114.2180 75.0868
4635 11.4673 98(10) 108.0949 75.0753
4636 11.4693 99(10) 102.6028 75.0638
4637 11.4713 103(10) 97.8287 75.0524
4638 11.4733 93(10) 93.7785 75.0409
4639 11.4753 94(10) 90.4111 75.0295
4640 11.4773 93(10) 87.6608 75.0181
4641 11.4793 92(10) 85.4570 75.0067
4642 11.4813 93(10) 83.7244 74.9952
4643 11.4833 86(9) 82.3925 74.9838
4644 11.4853 93(10) 81.3972 74.9725
4645 11.4873 92(10) 80.6826 74.9611
4646 11.4893 81(9) 80.2034 74.9497
4647 11.4913 84(9) 79.9285 74.9383
4648 11.4933 79(9) 79.8417 74.9270
4649 11.4953 87(9) 79.9448 74.9156
4650 11.4973 81(9) 80.2586 74.9043
4651 11.4993 85(9) 80.8226 74.8930
4652 11.5013 81(9) 81.6931 74.8817
4653 11.5033 77(9) 82.9381 74.8704
4654 11.5053 86(9) 84.6257 74.8591
4655 11.5073 88(9) 86.8140 74.8478
4656 11.5093 90(9) 89.5311 74.8365
4657 11.5113 93(10) 92.7572 74.8252
4658 11.5133 90(9) 96.4078 74.8140
4659 11.5153 85(9) 100.3244 74.8027
4660 11.5173 101(10) 104.2764 74.7915
4661 11.5193 106(10) 107.9648 74.7803
4662 11.5213 109(10) 111.0566 74.7691
4663 11.5233 103(10) 113.2083 74.7578
4664 11.5253 121(11) 114.1463 74.7466
4665 11.5273 108(10) 113.7084 74.7354
4666 11.5293 122(11) 111.9342 74.7243
4667 11.5313 100(10) 109.0739 74.7131
4668 11.5333 103(10) 105.5091 74.7019
4669 11.5353 100(10) 101.6396 74.6908
4670 11.5373 96(10) 97.7679 74.6796
4671 11.5393 83(9) 94.1631 74.6685
4672 11.5413 87(9) 90.9215 74.6574
4673 11.5433 83(9) 88.0905 74.6462
4674 11.5453 82(9) 85.6758 74.6351
4675 11.5473 82(9) 83.6530 74.6240
4676 11.5493 86(9) 81.9869 74.6129
4677 11.5513 73(9) 80.6372 74.6019
4678 11.5533 72(9) 79.5618 74.5908
4679 11.5553 81(9) 78.7186 74.5797
4680 11.5573 78(9) 78.0678 74.5687
4681 11.5593 73(9) 77.5711 74.5576
4682 11.5613 80(9) 77.1945 74.5466
4683 11.5633 74(9) 76.9086 74.5356
4684 11.5653 78(9) 76.6897 74.5246
4685 11.5673 74(9) 76.5194 74.5136
4686 11.5693 79(9) 76.3840 74.5026
4687 11.5713 81(9) 76.2742 74.4916
4688 11.5733 78(9) 76.1835 74.4806
4689 11.5753 74(9) 76.1080 74.4697
4690 11.5773 81(9) 76.0454 74.4587
4691 11.5793 72(9) 75.9945 74.4477
4692 11.5813 76(9) 75.9551 74.4368
4693 11.5833 80(9) 75.9276 74.4259
4694 11.5853 74(9) 75.9135 74.4149
4695 11.5873 69(8) 75.9151 74.4040
4696 11.5893 69(8) 75.9365 74.3931
4697 11.5913 80(9) 75.9837 74.3822
4698 11.5933 83(9) 76.0658 74.3714
4699 11.5953 75(9) 76.1960 74.3605
4700 11.5973 74(9) 76.3925 74.3496
4701 11.5993 83(9) 76.6798 74.3388
4702 11.6013 82(9) 77.0889 74.3279
4703 11.6033 76(9) 77.6566 74.3171
4704 11.6053 79(9) 78.4379 74.3063
4705 11.6073 78(9) 79.4588 74.2954
4706 11.6093 80(9) 80.7327 74.2846
4707 11.6113 82(9) 82.2872 74.2738
4708 11.6133 81(9) 84.1087 74.2631
4709 11.6153 84(9) 86.1477 74.2523
4710 11.6173 86(9) 88.3153 74.2415
4711 11.6193 95(10) 90.4838 74.2307
4712 11.6213 103(10) 92.4939 74.2200
4713 11.6233 104(10) 94.1640 74.2092
4714 11.6253 103(10) 95.3163 74.1985
4715 11.6273 100(10) 95.7998 74.1878
4716 11.6293 109(10) 95.5350 74.1771
4717 11.6313 103(10) 94.5519 74.1664
4718 11.6333 100(10) 92.9851 74.1557
4719 11.6353 95(10) 91.0386 74.1450
4720 11.6373 93(10) 88.9280 74.1343
4721 11.6393 87(9) 86.8271 74.1236
4722 11.6413 83(9) 84.8540 74.1130
4723 11.6433 87(9) 83.0745 74.1023
4724 11.6453 88(9) 81.5160 74.0917
4725 11.6473 76(9) 80.1806 74.0811
4726 11.6493 81(9) 79.0582 74.0704
4727 11.6513 79(9) 78.1296 74.0598
4728 11.6533 72(8) 77.3734 74.0492
4729 11.6553 74(9) 76.7542 74.0386
4730 11.6573 79(9) 76.2758 74.0281
4731 11.6593 77(9) 75.9031 74.0175
4732 11.6613 71(8) 75.6153 74.0069
4733 11.6633 78(9) 75.4025 73.9964
4734 11.6653 73(9) 75.2318 73.9858
4735 11.6673 72(9) 75.0717 73.9753
4736 11.6693 86(9) 74.9653 73.9648
4737 11.6713 76(9) 74.8780 73.9542
4738 11.6733 71(8) 74.8041 73.9437
4739 11.6753 68(8) 74.6831 73.9332
4740 11.6773 72(8) 74.6271 73.9227
4741 11.6793 74(9) 74.5766 73.9123
4742 11.6813 70(8) 74.5305 73.9018
4743 11.6833 82(9) 74.4882 73.8913
4744 11.6853 80(9) 74.4491 73.8809
4745 11.6873 75(9) 74.4128 73.8704
4746 11.6893 69(8) 74.3791 73.8600
4747 11.6913 71(8) 74.3478 73.8496
4748 11.6933 73(9) 74.3724 73.8392
4749 11.6953 81(9) 74.3460 73.8288
4750 11.6973 80(9) 74.3213 73.8184
4751 11.6993 72(8) 74.2983 73.8080
4752 11.7013 71(8) 74.2767 73.7976
4753 11.7033 73(9) 74.2564 73.7872
4754 11.7053 74(9) 74.2373 73.7769
4755 11.7073 72(8) 74.2194 73.7665
4756 11.7093 76(9) 74.2026 73.7562
4757 11.7113 77(9) 74.1867 73.7458
4758 11.7133 76(9) 74.1718 73.7355
4759 11.7153 79(9) 74.1577 73.7252
4760 11.7173 77(9) 74.1445 73.7149
4761 11.7193 76(9) 74.1321 73.7046
4762 11.7213 78(9) 74.1205 73.6943
4763 11.7233 86(9) 74.1097 73.6840
4764 11.7253 80(9) 74.0996 73.6738
4765 11.7273 77(9) 74.0903 73.6635
4766 11.7293 73(9) 74.0817 73.6533
4767 11.7313 77(9) 74.0739 73.6430
4768 11.7333 70(8) 74.0668 73.6328
4769 11.7353 78(9) 74.1018 73.6226
4770 11.7373 74(9) 74.0970 73.6124
4771 11.7393 74(9) 74.0931 73.6022
4772 11.7413 78(9) 74.0900 73.5920
4773 11.7433 76(9) 74.0878 73.5818
4774 11.7453 73(9) 74.0865 73.5716
4775 11.7473 80(9) 74.0400 73.5615
4776 11.7493 71(8) 74.0416 73.5513
4777 11.7513 68(8) 74.0442 73.5412
4778 11.7533 73(9) 74.0481 73.5310
4779 11.7553 74(9) 74.0531 73.5209
4780 11.7573 76(9) 74.0595 73.5108
4781 11.7593 76(9) 74.0673 73.5007
4782 11.7613 71(8) 74.0766 73.4906
4783 11.7633 77(9) 74.0877 73.4805
4784 11.7653 85(9) 74.1006 73.4704
4785 11.7673 71(8) 74.1156 73.4603
4786 11.7693 75(9) 74.1330 73.4503
4787 11.7713 73(9) 74.1530 73.4402
4788 11.7733 70(8) 74.1762 73.4302
4789 11.7753 77(9) 74.2029 73.4201
4790 11.7773 77(9) 74.2340 73.4101
4791 11.7793 71(8) 74.2705 73.4001
4792 11.7813 72(8) 74.3137 73.3901
4793 11.7833 71(8) 74.3657 73.3801
4794 11.7853 73(9) 74.4293 73.3701
4795 11.7873 73(9) 74.5089 73.3601
4796 11.7893 77(9) 74.6106 73.3502
4797 11.7913 76(9) 74.7434 73.3402
4798 11.7933 70(8) 74.9202 73.3302
4799 11.7953 79(9) 75.1587 73.3203
4800 11.7973 81(9) 75.4827 73.3104
4801 11.7993 79(9) 75.9231 73.3004
4802 11.8013 83(9) 76.5172 73.2905
4803 11.8033 78(9) 77.3079 73.2806
4804 11.8053 87(9) 78.3402 73.2707
4805 11.8073 76(9) 79.6533 73.2608
4806 11.8093 76(9) 81.2755 73.2510
4807 11.8113 81(9) 83.2121 73.2411
4808 11.8133 85(9) 85.4370 73.2312
4809 11.8153 90(9) 87.8847 73.2214
4810 11.8173 87(9) 90.4474 73.2116
4811 11.8193 87(9) 92.9783 73.2017
4812 11.8213 90(9) 95.2949 73.1919
4813 11.8233 90(10) 97.2014 73.1821
4814 11.8253 91(10) 98.5072 73.1723
4815 11.8273 84(9) 99.0618 73.1625
4816 11.8293 87(9) 98.7947 73.1527
4817 11.8313 92(10) 97.7607 73.1429
4818 11.8333 92(10) 96.0775 73.1332
4819 11.8353 92(10) 93.9754 73.1234
4820 11.8373 91(10) 91.6791 73.1137
4821 11.8393 86(9) 89.3759 73.1039
4822 11.8413 87(9) 87.1950 73.0942
4823 11.8433 76(9) 85.2104 73.0845
4824 11.8453 81(9) 83.4534 73.0748
4825 11.8473 77(9) 81.9313 73.0651
4826 11.8493 83(9) 80.6357 73.0554
4827 11.8513 84(9) 79.5291 73.0457
4828 11.8533 82(9) 78.6512 73.0360
4829 11.8553 81(9) 77.9646 73.0264
4830 11.8573 78(9) 77.4592 73.0167
4831 11.8593 77(9) 77.1250 73.0070
4832 11.8613 79(9) 76.9540 72.9974
4833 11.8633 83(9) 76.9392 72.9878
4834 11.8653 79(9) 77.0754 72.9782
4835 11.8673 75(9) 77.3580 72.9686
4836 11.8693 85(9) 77.7807 72.9590
4837 11.8713 79(9) 78.3339 72.9494
4838 11.8733 80(9) 79.0014 72.9398
4839 11.8753 83(9) 79.7605 72.9302
4840 11.8773 87(9) 80.5823 72.9207
4841 11.8793 82(9) 81.4339 72.9111
4842 11.8813 77(9) 82.2834 72.9016
4843 11.8833 84(9) 83.1190 72.8920
4844 11.8853 86(9) 83.9097 72.8825
4845 11.8873 84(9) 84.6888 72.8730
4846 11.8893 91(10) 85.5188 72.8635
4847 11.8913 91(10) 86.5031 72.8540
4848 11.8933 87(9) 87.7725 72.8445
4849 11.8953 91(10) 89.4579 72.8350
4850 11.8973 93(10) 91.6606 72.8255
4851 11.8993 94(10) 94.4223 72.8161
4852 11.9013 104(10) 97.7145 72.8066
4853 11.9033 103(10) 101.4259 72.7972
4854 11.9053 107(10) 105.3638 72.7877
4855 11.9073 116(11) 109.2632 72.7783
4856 11.9093 113(11) 112.8050 72.7689
4857 11.9113 110(11) 115.6451 72.7595
4858 11.9133 119(11) 117.4507 72.7501
4859 11.9153 112(11) 118.0083 72.7407
4860 11.9173 115(11) 117.1358 72.7313
4861 11.9193 111(11) 114.9701 72.7220
4862 11.9213 110(10) 111.8024 72.7126
4863 11.9233 107(10) 108.0317 72.7032
4864 11.9253 111(11) 104.0669 72.6939
4865 11.9273 105(10) 100.2411 72.6846
4866 11.9293 104(10) 96.8113 72.6752
4867 11.9313 104(10) 93.9051 72.6659
4868 11.9333 99(10) 91.6375 72.6566
4869 11.9353 99(10) 90.0702 72.6473
4870 11.9373 97(10) 89.2404 72.6380
4871 11.9393 98(10) 89.1658 72.6288
4872 11.9413 101(10) 89.8380 72.6195
4873 11.9433 107(10) 91.2159 72.6102
4874 11.9453 103(10) 93.2148 72.6010
4875 11.9473 95(10) 95.7104 72.5918
4876 11.9493 106(10) 98.4914 72.5825
4877 11.9513 107(10) 101.3342 72.5733
4878 11.9533 97(10) 103.9650 72.5641
4879 11.9553 98(10) 106.0988 72.5549
4880 11.9573 95(10) 107.4647 72.5457
4881 11.9593 106(10) 107.8508 72.5365
4882 11.9613 106(10) 107.1591 72.5273
4883 11.9633 97(10) 105.4453 72.5181
4884 11.9653 95(10) 102.9171 72.5090
4885 11.9673 102(10) 99.8676 72.4998
4886 11.9693 102(10) 96.5959 72.4907
4887 11.9713 94(10) 93.3461 72.4816
4888 11.9733 90(10) 90.2854 72.4724
4889 11.9753 88(9) 87.5097 72.4633
4890 11.9773 88(9) 85.0607 72.4542
4891 11.9793 78(9) 82.9478 72.4451
4892 11.9813 85(9) 81.1564 72.4360
4893 11.9833 85(9) 79.6618 72.4270
4894 11.9853 87(9) 78.4435 72.4179
4895 11.9873 77(9) 77.4507 72.4088
4896 11.9893 86(9) 76.6597 72.3998
4897 11.9913 89(9) 76.0389 72.3907
4898 11.9933 78(9) 75.5573 72.3817
4899 11.9953 80(9) 75.1867 72.3727
4900 11.9973 82(9) 74.9022 72.3637
4901 11.9993 80(9) 74.6832 72.3547
4902 12.0013 76(9) 74.5129 72.3457
4903 12.0033 77(9) 74.3785 72.3367
4904 12.0053 79(9) 74.2709 72.3277
4905 12.0073 76(9) 74.1836 72.3188
4906 12.0093 71(8) 74.1126 72.3098
4907 12.0113 70(8) 74.0553 72.3009
4908 12.0133 76(9) 74.0108 72.2919
4909 12.0153 74(9) 73.9793 72.2830
4910 12.0173 76(9) 73.9618 72.2741
4911 12.0193 72(8) 73.9610 72.2651
4912 12.0213 72(8) 73.9807 72.2562
4913 12.0233 75(9) 74.0270 72.2473
4914 12.0253 75(9) 74.1101 72.2385
4915 12.0273 72(9) 74.2378 72.2296
4916 12.0293 78(9) 74.4266 72.2207
4917 12.0313 72(9) 74.6945 72.2119
4918 12.0333 73(9) 75.0619 72.2030
4919 12.0353 78(9) 75.5501 72.1942
4920 12.0373 76(9) 76.1786 72.1853
4921 12.0393 69(8) 76.9608 72.1765
4922 12.0413 74(9) 77.8999 72.1677
4923 12.0433 80(9) 78.9848 72.1589
4924 12.0453 79(9) 80.1842 72.1501
4925 12.0473 77(9) 81.4484 72.1413
4926 12.0493 77(9) 82.7076 72.1326
4927 12.0513 81(9) 83.8764 72.1238
4928 12.0533 81(9) 84.8448 72.1150
4929 12.0553 89(9) 85.5315 72.1063
4930 12.0573 85(9) 85.8727 72.0975
4931 12.0593 85(9) 85.8059 72.0888
4932 12.0613 89(9) 85.3372 72.0801
4933 12.0633 81(9) 84.5297 72.0714
4934 12.0653 79(9) 83.4871 72.0627
4935 12.0673 82(9) 82.3253 72.0540
4936 12.0693 81(9) 81.1452 72.0453
4937 12.0713 80(9) 80.0235 72.0366
4938 12.0733 74(9) 79.0069 72.0279
4939 12.0753 79(9) 78.1247 72.0193
4940 12.0773 74(9) 77.3896 72.0106
4941 12.0793 73(9) 76.8077 72.0020
4942 12.0813 74(9) 76.3820 71.9934
4943 12.0833 81(9) 76.1159 71.9848
4944 12.0853 71(8) 76.0132 71.9762
4945 12.0873 75(9) 76.0790 71.9676
4946 12.0893 82(9) 76.3178 71.9589
4947 12.0913 78(9) 76.7321 71.9504
4948 12.0933 76(9) 77.3187 71.9418
4949 12.0953 79(9) 78.0669 71.9332
4950 12.0973 81(9) 78.9539 71.9247
4951 12.0993 87(9) 79.9455 71.9161
4952 12.1013 85(9) 80.9969 71.9076
4953 12.1033 77(9) 82.0471 71.8990
4954 12.1053 81(9) 83.0355 71.8905
4955 12.1073 85(9) 83.9011 71.8820
4956 12.1093 86(9) 84.5930 71.8735
4957 12.1113 84(9) 85.0873 71.8650
4958 12.1133 86(9) 85.4016 71.8565
4959 12.1153 88(9) 85.5971 71.8480
4960 12.1173 93(10) 85.8072 71.8396
4961 12.1193 92(10) 86.1646 71.8311
4962 12.1213 89(9) 86.8076 71.8227
4963 12.1233 90(9) 87.8464 71.8142
4964 12.1253 93(10) 89.3500 71.8058
4965 12.1273 94(10) 91.3365 71.7974
4966 12.1293 98(10) 93.7711 71.7890
4967 12.1313 105(10) 96.5620 71.7806
4968 12.1333 113(11) 99.5700 71.7722
4969 12.1353 110(10) 102.6140 71.7638
4970 12.1373 112(11) 105.4783 71.7554
4971 12.1393 104(10) 107.9395 71.7470
4972 12.1413 108(10) 109.7884 71.7387
4973 12.1433 115(11) 110.8722 71.7303
4974 12.1453 116(11) 111.0857 71.7220
4975 12.1473 118(11) 110.6022 71.7137
4976 12.1493 109(10) 109.5342 71.7053
4977 12.1513 111(11) 108.0822 71.6970
4978 12.1533 105(10) 106.4198 71.6887
4979 12.1553 118(11) 104.6603 71.6804
4980 12.1573 105(10) 102.8594 71.6721
4981 12.1593 102(10) 101.0398 71.6638
4982 12.1613 111(11) 99.2207 71.6556
4983 12.1633 101(10) 97.4389 71.6473
4984 12.1653 95(10) 95.7389 71.6391
4985 12.1673 95(10) 94.1575 71.6308
4986 12.1693 95(10) 92.7049 71.6226
4987 12.1713 90(9) 91.3585 71.6144
4988 12.1733 91(10) 90.0702 71.6062
4989 12.1753 86(9) 88.7850 71.5979
4990 12.1773 87(9) 87.4591 71.5897
4991 12.1793 84(9) 86.0805 71.5816
4992 12.1813 88(9) 84.6745 71.5734
4993 12.1833 82(9) 83.2946 71.5652
4994 12.1853 85(9) 82.0033 71.5571
4995 12.1873 83(9) 80.8560 71.5489
4996 12.1893 77(9) 79.8536 71.5408
4997 12.1913 80(9) 79.1232 71.5326
4998 12.1933 81(9) 78.6058 71.5245
4999 12.1953 76(9) 78.2958 71.5164
5000 12.1973 75(9) 78.1942 71.5083
5001 12.1993 78(9) 78.2797 71.5002
5002 12.2013 86(9) 78.5205 71.4921
5003 12.2033 79(9) 78.8740 71.4840
5004 12.2053 83(9) 79.2886 71.4759
5005 12.2073 85(9) 79.7047 71.4679
5006 12.2093 80(9) 80.0588 71.4598
5007 12.2113 87(9) 80.2890 71.4518
5008 12.2133 84(9) 80.3427 71.4437
5009 12.2153 77(9) 80.1878 71.4357
5010 12.2173 76(9) 79.8226 71.4277
5011 12.2193 80(9) 79.2780 71.4197
5012 12.2213 83(9) 78.6089 71.4117
5013 12.2233 76(9) 77.8782 71.4037
5014 12.2253 77(9) 77.1426 71.3957
5015 12.2273 83(9) 76.4445 71.3877
5016 12.2293 78(9) 75.8125 71.3798
5017 12.2313 84(9) 75.2621 71.3718
5018 12.2333 80(9) 74.8002 71.3639
5019 12.2353 80(9) 74.4277 71.3559
5020 12.2373 79(9) 74.1409 71.3480
5021 12.2393 73(9) 73.9333 71.3401
5022 12.2413 78(9) 73.7955 71.3322
5023 12.2433 77(9) 73.7156 71.3243
5024 12.2453 78(9) 73.7094 71.3164
5025 12.2473 71(8) 73.7014 71.3085
5026 12.2493 67(8) 73.7046 71.3006
5027 12.2513 75(9) 73.7022 71.2928
5028 12.2533 73(9) 73.6795 71.2849
5029 12.2553 77(9) 73.6720 71.2771
5030 12.2573 75(9) 73.5819 71.2692
5031 12.2593 74(9) 73.4570 71.2614
5032 12.2613 69(8) 73.3053 71.2536
5033 12.2633 67(8) 73.1379 71.2458
5034 12.2653 74(9) 72.9660 71.2380
5035 12.2673 74(9) 72.7986 71.2302
5036 12.2693 76(9) 72.6419 71.2224
5037 12.2713 70(8) 72.4993 71.2146
5038 12.2733 72(8) 72.3722 71.2068
5039 12.2753 73(9) 72.2609 71.1991
5040 12.2773 72(8) 72.1647 71.1913
5041 12.2793 69(8) 72.0825 71.1836
5042 12.2813 71(8) 72.0133 71.1759
5043 12.2833 65(8) 71.9555 71.1681
5044 12.2853 79(9) 71.9079 71.1604
5045 12.2873 75(9) 71.8693 71.1527
5046 12.2893 72(8) 71.8383 71.1450
5047 12.2913 72(8) 71.7994 71.1373
5048 12.2933 74(9) 71.7816 71.1296
5049 12.2953 68(8) 71.7695 71.1220
5050 12.2973 68(8) 71.7631 71.1143
5051 12.2993 80(9) 71.7628 71.1067
5052 12.3013 77(9) 71.7698 71.0990
5053 12.3033 69(8) 71.7854 71.0914
5054 12.3053 68(8) 71.8117 71.0838
5055 12.3073 69(8) 71.8509 71.0762
5056 12.3093 70(8) 71.9057 71.0685
5057 12.3113 71(8) 72.0062 71.0610
5058 12.3133 71(8) 72.0991 71.0534
5059 12.3153 75(9) 72.2126 71.0458
5060 12.3173 67(8) 72.3456 71.0382
5061 12.3193 71(8) 72.4953 71.0306
5062 12.3213 69(8) 72.6574 71.0231
5063 12.3233 71(8) 72.8221 71.0155
5064 12.3253 75(9) 73.0067 71.0080
5065 12.3273 69(8) 73.1492 71.0005
5066 12.3293 77(9) 73.2635 70.9930
5067 12.3313 76(9) 73.3395 70.9855
5068 12.3333 77(9) 73.3701 70.9780
5069 12.3353 70(8) 73.3539 70.9705
5070 12.3373 75(9) 73.2963 70.9630
5071 12.3393 76(9) 73.2089 70.9555
5072 12.3413 72(8) 73.1064 70.9480
5073 12.3433 74(9) 73.0034 70.9406
5074 12.3453 70(8) 72.8987 70.9331
5075 12.3473 69(8) 72.8242 70.9257
5076 12.3493 72(8) 72.7703 70.9183
5077 12.3513 74(9) 72.7366 70.9109
5078 12.3533 78(9) 72.7202 70.9034
5079 12.3553 73(9) 72.7161 70.8960
5080 12.3573 72(8) 72.7181 70.8886
5081 12.3593 73(9) 72.7200 70.8812
5082 12.3613 73(9) 72.7156 70.8739
5083 12.3633 73(9) 72.7006 70.8665
5084 12.3653 72(8) 72.6730 70.8591
5085 12.3673 77(9) 72.6343 70.8518
5086 12.3693 80(9) 72.5887 70.8445
5087 12.3713 73(9) 72.5459 70.8371
5088 12.3733 70(8) 72.5031 70.8298
5089 12.3753 76(9) 72.4692 70.8225
5090 12.3773 70(8) 72.4098 70.8152
5091 12.3793 70(8) 72.4051 70.8079
5092 12.3813 72(9) 72.4190 70.8006
5093 12.3833 69(8) 72.4549 70.7933
5094 12.3853 75(9) 72.5174 70.7860
5095 12.3873 77(9) 72.6131 70.7788
5096 12.3893 72(8) 72.7600 70.7715
5097 12.3913 73(9) 72.9538 70.7643
5098 12.3933 73(9) 73.2056 70.7570
5099 12.3953 73(9) 73.5698 70.7498
5100 12.3973 74(9) 74.0700 70.7426
5101 12.3993 74(9) 74.7218 70.7354
5102 12.4013 72(8) 75.5738 70.7282
5103 12.4033 72(8) 76.6655 70.7210
5104 12.4053 76(9) 78.0319 70.7138
5105 12.4073 78(9) 79.6964 70.7066
5106 12.4093 79(9) 81.6633 70.6995
5107 12.4113 75(9) 83.8995 70.6923
5108 12.4133 83(9) 86.3693 70.6852
5109 12.4153 92(10) 88.9699 70.6780
5110 12.4173 82(9) 91.5741 70.6709
5111 12.4193 86(9) 94.0249 70.6638
5112 12.4213 93(10) 96.1465 70.6567
5113 12.4233 92(10) 97.7600 70.6496
5114 12.4253 93(10) 98.7057 70.6425
5115 12.4273 100(10) 98.8771 70.6354
5116 12.4293 91(10) 98.2557 70.6283
5117 12.4313 89(9) 96.9246 70.6212
5118 12.4333 93(10) 95.0533 70.6142
5119 12.4353 90(9) 92.8539 70.6071
5120 12.4373 86(9) 90.5320 70.6001
5121 12.4393 91(10) 88.2586 70.5930
5122 12.4413 86(9) 86.1538 70.5860
5123 12.4433 90(10) 84.2969 70.5790
5124 12.4453 77(9) 82.7367 70.5720
5125 12.4473 76(9) 81.5046 70.5650
5126 12.4493 80(9) 80.6147 70.5580
5127 12.4513 85(9) 80.1104 70.5510
5128 12.4533 83(9) 80.0102 70.5440
5129 12.4553 78(9) 80.3485 70.5371
5130 12.4573 78(9) 81.1654 70.5301
5131 12.4593 77(9) 82.5031 70.5232
5132 12.4613 83(9) 84.4007 70.5162
5133 12.4633 87(9) 86.8878 70.5093
5134 12.4653 91(10) 89.9712 70.5024
5135 12.4673 86(9) 93.6315 70.4955
5136 12.4693 97(10) 97.8098 70.4886
5137 12.4713 90(10) 102.4005 70.4817
5138 12.4733 100(10) 107.2460 70.4748
5139 12.4753 108(10) 112.1361 70.4679
5140 12.4773 117(11) 116.8177 70.4610
5141 12.4793 121(11) 121.0063 70.4542
5142 12.4813 130(11) 124.4325 70.4473
5143 12.4833 139(12) 126.8709 70.4405
5144 12.4853 132(11) 128.1674 70.4337
5145 12.4873 129(11) 128.2411 70.4268
5146 12.4893 139(12) 127.0755 70.4200
5147 12.4913 142(12) 124.7240 70.4132
5148 12.4933 141(12) 121.3334 70.4064
5149 12.4953 127(11) 117.1425 70.3996
5150 12.4973 117(11) 112.4599 70.3928
5151 12.4993 119(11) 107.6050 70.3861
5152 12.5013 107(10) 102.8527 70.3793
5153 12.5033 93(10) 98.4040 70.3725
5154 12.5053 94(10) 94.3869 70.3658
5155 12.5073 84(9) 90.8660 70.3591
5156 12.5093 84(9) 87.8635 70.3523
5157 12.5113 79(9) 85.3746 70.3456
5158 12.5133 82(9) 83.3804 70.3389
5159 12.5153 80(9) 81.8565 70.3322
5160 12.5173 80(9) 80.7810 70.3255
5161 12.5193 76(9) 80.1341 70.3188
5162 12.5213 77(9) 79.9026 70.3121
5163 12.5233 73(9) 80.0783 70.3055
5164 12.5253 83(9) 80.6567 70.2988
5165 12.5273 81(9) 81.6333 70.2922
5166 12.5293 82(9) 83.0013 70.2855
5167 12.5313 83(9) 84.7405 70.2789
5168 12.5333 91(10) 86.8208 70.2723
5169 12.5353 84(9) 89.1927 70.2656
5170 12.5373 94(10) 91.7852 70.2590
5171 12.5393 100(10) 94.5048 70.2524
5172 12.5413 101(10) 97.2386 70.2458
5173 12.5433 103(10) 99.8537 70.2393
5174 12.5453 105(10) 102.2146 70.2327
5175 12.5473 109(10) 104.1955 70.2261
5176 12.5493 106(10) 105.7057 70.2196
5177 12.5513 99(10) 106.7069 70.2130
5178 12.5533 104(10) 107.2128 70.2065
5179 12.5553 119(11) 107.2632 70.1999
5180 12.5573 112(11) 106.8909 70.1934
5181 12.5593 118(11) 106.1017 70.1869
5182 12.5613 116(11) 104.8762 70.1804
5183 12.5633 103(10) 103.1942 70.1739
5184 12.5653 109(10) 101.0673 70.1674
5185 12.5673 106(10) 98.5631 70.1609
5186 12.5693 100(10) 95.8031 70.1545
5187 12.5713 96(10) 92.9407 70.1480
5188 12.5733 89(9) 90.1263 70.1416
5189 12.5753 88(9) 87.4758 70.1351
5190 12.5773 83(9) 85.0679 70.1287
5191 12.5793 80(9) 82.9456 70.1223
5192 12.5813 78(9) 81.1238 70.1158
5193 12.5833 78(9) 79.6019 70.1094
5194 12.5853 69(8) 78.3660 70.1030
5195 12.5873 84(9) 77.3993 70.0966
5196 12.5893 74(9) 76.6836 70.0903
5197 12.5913 82(9) 76.1911 70.0839
5198 12.5933 82(9) 75.9051 70.0775
5199 12.5953 78(9) 75.8044 70.0712
5200 12.5973 79(9) 75.8681 70.0648
5201 12.5993 78(9) 76.0754 70.0585
5202 12.6013 72(8) 76.4048 70.0521
5203 12.6033 82(9) 76.8392 70.0458
5204 12.6053 82(9) 77.3599 70.0395
5205 12.6073 81(9) 77.9513 70.0332
5206 12.6093 76(9) 78.5999 70.0269
5207 12.6113 84(9) 79.2969 70.0206
5208 12.6133 77(9) 80.0381 70.0143
5209 12.6153 91(10) 80.8216 70.0080
5210 12.6173 83(9) 81.6426 70.0018
5211 12.6193 93(10) 82.4857 69.9955
5212 12.6213 88(9) 83.3206 69.9893
5213 12.6233 86(9) 84.0993 69.9830
5214 12.6253 84(9) 84.7633 69.9768
5215 12.6273 82(9) 85.2507 69.9706
5216 12.6293 87(9) 85.5088 69.9644
5217 12.6313 88(9) 85.5038 69.9582
5218 12.6333 89(9) 85.2244 69.9520
5219 12.6353 85(9) 84.6806 69.9458
5220 12.6373 84(9) 83.8991 69.9396
5221 12.6393 83(9) 82.9231 69.9334
5222 12.6413 79(9) 81.8109 69.9273
5223 12.6433 81(9) 80.6295 69.9211
5224 12.6453 77(9) 79.4449 69.9150
5225 12.6473 83(9) 78.3109 69.9088
5226 12.6493 72(8) 77.2667 69.9027
5227 12.6513 77(9) 76.3329 69.8966
5228 12.6533 73(9) 75.5168 69.8905
5229 12.6553 78(9) 74.8158 69.8844
5230 12.6573 72(9) 74.2201 69.8783
5231 12.6593 78(9) 73.7162 69.8722
5232 12.6613 69(8) 73.2887 69.8661
5233 12.6633 74(9) 72.9224 69.8601
5234 12.6653 72(8) 72.6036 69.8540
5235 12.6673 68(8) 72.3014 69.8480
5236 12.6693 66(8) 72.0371 69.8419
5237 12.6713 71(8) 71.8111 69.8359
5238 12.6733 75(9) 71.6087 69.8298
5239 12.6753 73(9) 71.4286 69.8238
5240 12.6773 73(9) 71.2693 69.8178
5241 12.6793 76(9) 71.1290 69.8118
5242 12.6813 72(9) 71.0058 69.8058
5243 12.6833 71(8) 70.8979 69.7999
5244 12.6853 68(8) 70.8033 69.7939
5245 12.6873 69(8) 70.7204 69.7879
5246 12.6893 68(8) 70.6479 69.7820
5247 12.6913 71(8) 70.5844 69.7760
5248 12.6933 71(8) 70.5290 69.7701
5249 12.6953 68(8) 70.4806 69.7641
5250 12.6973 76(9) 70.4385 69.7582
5251 12.6993 71(8) 70.4018 69.7523
5252 12.7013 71(8) 70.3701 69.7464
5253 12.7033 66(8) 70.3429 69.7405
5254 12.7053 75(9) 70.3199 69.7346
5255 12.7073 73(9) 70.3184 69.7287
5256 12.7093 74(9) 70.3044 69.7228
5257 12.7113 67(8) 70.2955 69.7170
5258 12.7133 73(9) 70.2924 69.7111
5259 12.7153 63(8) 70.2963 69.7053
5260 12.7173 70(8) 70.3087 69.6994
5261 12.7193 70(8) 70.3310 69.6936
5262 12.7213 67(8) 70.3353 69.6878
5263 12.7233 67(8) 70.3827 69.6820
5264 12.7253 71(8) 70.4440 69.6762
5265 12.7273 73(9) 70.5191 69.6704
5266 12.7293 72(8) 70.6079 69.6646
5267 12.7313 69(8) 70.6603 69.6588
5268 12.7333 77(9) 70.7661 69.6530
5269 12.7353 67(8) 70.8734 69.6473
5270 12.7373 69(8) 70.9760 69.6415
5271 12.7393 79(9) 71.0671 69.6358
5272 12.7413 76(9) 71.1396 69.6300
5273 12.7433 69(8) 71.1874 69.6243
5274 12.7453 73(9) 71.2065 69.6186
5275 12.7473 73(9) 71.1963 69.6129
5276 12.7493 82(9) 71.1604 69.6072
5277 12.7513 64(8) 71.1059 69.6015
5278 12.7533 72(9) 71.0417 69.5958
5279 12.7553 66(8) 70.9762 69.5901
5280 12.7573 72(9) 70.9156 69.5844
5281 12.7593 78(9) 70.8777 69.5788
5282 12.7613 69(8) 70.8348 69.5731
5283 12.7633 67(8) 70.7997 69.5675
5284 12.7653 70(8) 70.7692 69.5618
5285 12.7673 71(8) 70.7393 69.5562
5286 12.7693 72(8) 70.7060 69.5506
5287 12.7713 74(9) 70.6648 69.5450
5288 12.7733 71(8) 70.6150 69.5394
5289 12.7753 76(9) 70.5557 69.5338
5290 12.7773 63(8) 70.4889 69.5282
5291 12.7793 71(8) 70.4181 69.5226
5292 12.7813 72(9) 70.3472 69.5170
5293 12.7833 71(8) 70.2797 69.5115
5294 12.7853 72(8) 70.2183 69.5059
5295 12.7873 66(8) 70.1649 69.5004
5296 12.7893 73(9) 70.1209 69.4948
5297 12.7913 65(8) 70.0604 69.4893
5298 12.7933 70(8) 70.0392 69.4838
5299 12.7953 73(9) 70.0313 69.4783
5300 12.7973 71(8) 70.0389 69.4728
5301 12.7993 66(8) 70.0649 69.4673
5302 12.8013 67(8) 70.1118 69.4618
5303 12.8033 75(9) 70.1862 69.4563
5304 12.8053 72(8) 70.2919 69.4508
5305 12.8073 66(8) 70.4086 69.4454
5306 12.8093 67(8) 70.5920 69.4399
5307 12.8113 73(9) 70.8196 69.4345
5308 12.8133 72(9) 71.0922 69.4290
5309 12.8153 74(9) 71.4073 69.4236
5310 12.8173 72(8) 71.7582 69.4182
5311 12.8193 74(9) 72.1336 69.4128
5312 12.8213 73(9) 72.5170 69.4074
5313 12.8233 80(9) 72.8880 69.4020
5314 12.8253 71(8) 73.2229 69.3966
5315 12.8273 73(9) 73.4966 69.3912
5316 12.8293 69(8) 73.6847 69.3858
5317 12.8313 65(8) 73.7676 69.3805
5318 12.8333 74(9) 73.7348 69.3751
5319 12.8353 77(9) 73.5885 69.3698
5320 12.8373 78(9) 73.3445 69.3644
5321 12.8393 76(9) 73.0285 69.3591
5322 12.8413 79(9) 72.6699 69.3538
5323 12.8433 72(8) 72.2961 69.3485
5324 12.8453 76(9) 71.9282 69.3432
5325 12.8473 72(8) 71.5816 69.3379
5326 12.8493 74(9) 71.2648 69.3326
5327 12.8513 73(9) 70.9821 69.3273
5328 12.8533 75(9) 70.7348 69.3220
5329 12.8553 74(9) 70.5178 69.3168
5330 12.8573 69(8) 70.3375 69.3115
5331 12.8593 64(8) 70.1872 69.3063
5332 12.8613 72(9) 70.0636 69.3010
5333 12.8633 68(8) 69.9637 69.2958
5334 12.8653 66(8) 69.8841 69.2906
5335 12.8673 67(8) 69.8216 69.2854
5336 12.8693 67(8) 69.7734 69.2802
5337 12.8713 71(8) 69.7366 69.2750
5338 12.8733 68(8) 69.7003 69.2698
5339 12.8753 70(8) 69.6799 69.2646
5340 12.8773 73(9) 69.6650 69.2594
5341 12.8793 69(8) 69.6545 69.2543
5342 12.8813 67(8) 69.6380 69.2491
5343 12.8833 72(8) 69.6337 69.2439
5344 12.8853 65(8) 69.6318 69.2388
5345 12.8873 67(8) 69.6320 69.2337
5346 12.8893 68(8) 69.6342 69.2286
5347 12.8913 64(8) 69.6414 69.2234
5348 12.8933 63(8) 69.6478 69.2183
5349 12.8953 70(8) 69.6841 69.2132
5350 12.8973 76(9) 69.6955 69.2082
5351 12.8993 66(8) 69.7099 69.2031
5352 12.9013 73(9) 69.7276 69.1980
5353 12.9033 73(9) 69.7495 69.1929
5354 12.9053 74(9) 69.7766 69.1879
5355 12.9073 72(8) 69.8105 69.1828
5356 12.9093 64(8) 69.8524 69.1778
5357 12.9113 70(8) 69.9073 69.1728
5358 12.9133 70(8) 69.9784 69.1677
5359 12.9153 72(8) 70.0716 69.1627
5360 12.9173 77(9) 70.2139 69.1577
5361 12.9193 74(9) 70.3772 69.1527
5362 12.9213 75(9) 70.5941 69.1477
5363 12.9233 71(8) 70.8775 69.1427
5364 12.9253 71(8) 71.2452 69.1377
5365 12.9273 72(8) 71.7155 69.1328
5366 12.9293 68(8) 72.3054 69.1278
5367 12.9313 73(9) 73.0288 69.1229
5368 12.9333 79(9) 73.8932 69.1179
5369 12.9353 79(9) 74.8966 69.1130
5370 12.9373 74(9) 76.0252 69.1081
5371 12.9393 75(9) 77.2490 69.1031
5372 12.9413 79(9) 78.5243 69.0982
5373 12.9433 78(9) 79.7925 69.0933
5374 12.9453 83(9) 80.9834 69.0884
5375 12.9473 81(9) 82.0188 69.0835
5376 12.9493 76(9) 82.8202 69.0787
5377 12.9513 78(9) 83.3158 69.0738
5378 12.9533 81(9) 83.4573 69.0689
5379 12.9553 75(9) 83.2461 69.0641
5380 12.9573 77(9) 82.6849 69.0592
5381 12.9593 86(9) 81.8583 69.0544
5382 12.9613 81(9) 80.8589 69.0496
5383 12.9633 78(9) 79.7799 69.0448
5384 12.9653 77(9) 78.7017 69.0399
5385 12.9673 78(9) 77.6828 69.0351
5386 12.9693 85(9) 76.7623 69.0303
5387 12.9713 80(9) 75.9642 69.0256
5388 12.9733 82(9) 75.3025 69.0208
5389 12.9753 76(9) 74.7856 69.0160
5390 12.9773 79(9) 74.4209 69.0112
5391 12.9793 78(9) 74.2150 69.0065
5392 12.9813 75(9) 74.1756 69.0017
5393 12.9833 81(9) 74.4017 68.9970
5394 12.9853 81(9) 74.7124 68.9923
5395 12.9873 80(9) 75.2912 68.9875
5396 12.9893 83(9) 75.9313 68.9828
5397 12.9913 83(9) 76.7011 68.9781
5398 12.9933 83(9) 77.5604 68.9734
5399 12.9953 94(10) 78.4613 68.9687
5400 12.9973 85(9) 79.3413 68.9640
5401 12.9993 81(9) 80.1330 68.9594
5402 13.0013 85(9) 80.7663 68.9547
5403 13.0033 81(9) 81.1760 68.9500
5404 13.0053 85(9) 81.3105 68.9454
5405 13.0073 79(9) 81.1446 68.9407
5406 13.0093 78(9) 80.6880 68.9361
5407 13.0113 83(9) 79.9856 68.9315
5408 13.0133 79(9) 79.1068 68.9268
5409 13.0153 75(9) 78.1276 68.9222
5410 13.0173 74(9) 77.1185 68.9176
5411 13.0193 81(9) 76.1315 68.9130
5412 13.0213 77(9) 75.2047 68.9085
5413 13.0233 81(9) 74.3588 68.9039
5414 13.0253 78(9) 73.6041 68.8993
5415 13.0273 75(9) 72.9433 68.8947
5416 13.0293 78(9) 72.3737 68.8902
5417 13.0313 79(9) 71.8908 68.8856
5418 13.0333 77(9) 71.4870 68.8811
5419 13.0353 80(9) 71.1545 68.8766
5420 13.0373 75(9) 70.8849 68.8720
5421 13.0393 72(9) 70.6696 68.8675
5422 13.0413 76(9) 70.5001 68.8630
5423 13.0433 76(9) 70.3688 68.8585
5424 13.0453 68(8) 70.2682 68.8540
5425 13.0473 70(8) 70.1921 68.8495
5426 13.0493 72(8) 70.1350 68.8451
5427 13.0513 71(8) 70.0926 68.8406
5428 13.0533 76(9) 70.0614 68.8361
5429 13.0553 72(9) 70.0389 68.8317
5430 13.0573 67(8) 70.0231 68.8272
5431 13.0593 74(9) 70.0126 68.8228
5432 13.0613 68(8) 70.0067 68.8184
5433 13.0633 69(8) 70.0047 68.8140
5434 13.0653 78(9) 70.0222 68.8095
5435 13.0673 68(8) 70.0273 68.8051
5436 13.0693 74(9) 70.0355 68.8007
5437 13.0713 72(8) 70.0469 68.7964
5438 13.0733 72(9) 70.0614 68.7920
5439 13.0753 70(8) 70.0790 68.7876
5440 13.0773 65(8) 70.1000 68.7832
5441 13.0793 71(8) 70.1234 68.7789
5442 13.0813 77(9) 70.1473 68.7745
5443 13.0833 71(8) 70.1793 68.7702
5444 13.0853 69(8) 70.2155 68.7659
5445 13.0873 71(8) 70.2565 68.7615
5446 13.0893 73(9) 70.3027 68.7572
5447 13.0913 67(8) 70.3551 68.7529
5448 13.0933 70(8) 70.4148 68.7486
5449 13.0953 71(8) 70.4835 68.7443
5450 13.0973 74(9) 70.5631 68.7400
5451 13.0993 74(9) 70.6571 68.7358
5452 13.1013 75(9) 70.7695 68.7315
5453 13.1033 69(8) 70.9063 68.7272
5454 13.1053 72(8) 71.0767 68.7230
5455 13.1073 76(9) 71.2899 68.7187
5456 13.1093 72(8) 71.5610 68.7145
5457 13.1113 77(9) 71.9084 68.7103
5458 13.1133 78(9) 72.3547 68.7060
5459 13.1153 79(9) 72.9263 68.7018
5460 13.1173 77(9) 73.6531 68.6976
5461 13.1193 73(9) 74.5662 68.6934
5462 13.1213 77(9) 75.7008 68.6892
5463 13.1233 79(9) 77.0701 68.6850
5464 13.1253 80(9) 78.6937 68.6809
5465 13.1273 77(9) 80.5710 68.6767
5466 13.1293 78(9) 82.6825 68.6725
5467 13.1313 83(9) 84.9904 68.6684
5468 13.1333 83(9) 87.4248 68.6642
5469 13.1353 93(10) 89.9018 68.6601
5470 13.1373 97(10) 92.3208 68.6560
5471 13.1393 95(10) 94.5694 68.6519
5472 13.1413 100(10) 96.5347 68.6477
5473 13.1433 98(10) 98.1159 68.6436
5474 13.1453 103(10) 99.2427 68.6395
5475 13.1473 109(10) 99.9411 68.6355
5476 13.1493 102(10) 100.1532 68.6314
5477 13.1513 108(10) 100.0165 68.6273
5478 13.1533 103(10) 99.6484 68.6232
5479 13.1553 104(10) 99.1606 68.6192
5480 13.1573 104(10) 98.6311 68.6151
5481 13.1593 108(10) 98.0923 68.6111
5482 13.1613 98(10) 97.5332 68.6071
5483 13.1633 102(10) 96.9091 68.6030
5484 13.1653 109(10) 96.1591 68.5990
5485 13.1673 108(10) 95.2264 68.5950
5486 13.1693 101(10) 94.0794 68.5910
5487 13.1713 97(10) 92.7279 68.5870
5488 13.1733 87(9) 91.2262 68.5830
5489 13.1753 94(10) 89.6640 68.5790
5490 13.1773 93(10) 88.1421 68.5751
5491 13.1793 80(9) 86.7558 68.5711
5492 13.1813 85(9) 85.5856 68.5671
5493 13.1833 87(9) 84.6829 68.5632
5494 13.1853 79(9) 84.0870 68.5593
5495 13.1873 83(9) 83.8185 68.5553
5496 13.1893 80(9) 83.8849 68.5514
5497 13.1913 85(9) 84.2839 68.5475
5498 13.1933 83(9) 85.0065 68.5436
5499 13.1953 86(9) 86.0440 68.5397
5500 13.1973 87(9) 87.3788 68.5358
5501 13.1993 83(9) 89.0105 68.5319
5502 13.2013 87(9) 90.9461 68.5280
5503 13.2033 94(10) 93.2149 68.5241
5504 13.2053 92(10) 95.8559 68.5203
5505 13.2073 91(10) 98.9945 68.5164
5506 13.2093 99(10) 102.7457 68.5126
5507 13.2113 94(10) 107.2799 68.5087
5508 13.2133 108(10) 112.7923 68.5049
5509 13.2153 105(10) 119.4595 68.5011
5510 13.2173 121(11) 127.4136 68.4973
5511 13.2193 128(11) 136.7015 68.4934
5512 13.2213 131(11) 147.2108 68.4896
5513 13.2233 152(12) 158.7149 68.4858
5514 13.2253 172(13) 170.8295 68.4821
5515 13.2273 179(13) 183.0075 68.4783
5516 13.2293 203(14) 194.5967 68.4745
5517 13.2313 219(15) 204.8607 68.4707
5518 13.2333 238(15) 213.0428 68.4670
5519 13.2353 239(15) 218.4583 68.4632
5520 13.2373 250(16) 220.5997 68.4595
5521 13.2393 238(15) 219.2319 68.4558
5522 13.2413 236(15) 214.4516 68.4520
5523 13.2433 216(15) 206.6744 68.4483
5524 13.2453 212(15) 196.5647 68.4446
5525 13.2473 195(14) 184.9185 68.4409
5526 13.2493 185(14) 172.5309 68.4372
5527 13.2513 169(13) 160.0833 68.4335
5528 13.2533 144(12) 148.1113 68.4299
5529 13.2553 138(12) 136.9609 68.4262
5530 13.2573 135(12) 126.8373 68.4225
5531 13.2593 117(11) 117.8195 68.4189
5532 13.2613 112(11) 109.9500 68.4152
5533 13.2633 97(10) 103.1773 68.4116
5534 13.2653 96(10) 97.4293 68.4079
5535 13.2673 95(10) 92.6229 68.4043
5536 13.2693 83(9) 88.6564 68.4007
5537 13.2713 86(9) 85.4269 68.3971
5538 13.2733 79(9) 82.8320 68.3935
5539 13.2753 80(9) 80.7735 68.3899
5540 13.2773 81(9) 79.1606 68.3863
5541 13.2793 84(9) 77.9118 68.3827
5542 13.2813 76(9) 76.9593 68.3791
5543 13.2833 74(9) 76.2467 68.3756
5544 13.2853 78(9) 75.7311 68.3720
5545 13.2873 74(9) 75.3828 68.3685
5546 13.2893 74(9) 75.1832 68.3649
5547 13.2913 75(9) 75.1235 68.3614
5548 13.2933 83(9) 75.2021 68.3579
5549 13.2953 80(9) 75.4220 68.3544
5550 13.2973 73(9) 75.7874 68.3508
5551 13.2993 79(9) 76.3008 68.3473
5552 13.3013 77(9) 76.9591 68.3438
5553 13.3033 79(9) 77.7889 68.3404
5554 13.3053 77(9) 78.6938 68.3369
5555 13.3073 83(9) 79.6763 68.3334
5556 13.3093 83(9) 80.6909 68.3299
5557 13.3113 80(9) 81.6808 68.3265
5558 13.3133 85(9) 82.5811 68.3230
5559 13.3153 89(9) 83.3228 68.3196
5560 13.3173 92(10) 83.8385 68.3161
5561 13.3193 85(9) 84.0715 68.3127
5562 13.3213 82(9) 83.9877 68.3093
5563 13.3233 85(9) 83.5860 68.3059
5564 13.3253 86(9) 82.9019 68.3025
5565 13.3273 89(9) 82.0010 68.2991
5566 13.3293 81(9) 80.9636 68.2957
5567 13.3313 77(9) 79.8678 68.2923
5568 13.3333 83(9) 78.7808 68.2889
5569 13.3353 82(9) 77.7840 68.2855
5570 13.3373 77(9) 76.8445 68.2822
5571 13.3393 72(8) 76.0147 68.2788
5572 13.3413 73(9) 75.3051 68.2755
5573 13.3433 72(9) 74.7197 68.2721
5574 13.3453 71(8) 74.2586 68.2688
5575 13.3473 75(9) 73.9205 68.2655
5576 13.3493 75(9) 73.7024 68.2622
5577 13.3513 71(8) 73.6010 68.2589
5578 13.3533 78(9) 73.6130 68.2556
5579 13.3553 71(8) 73.7412 68.2523
5580 13.3573 74(9) 73.9721 68.2490
5581 13.3593 74(9) 74.3089 68.2457
5582 13.3613 75(9) 74.7730 68.2424
5583 13.3633 71(8) 75.3217 68.2392
5584 13.3653 79(9) 75.9793 68.2359
5585 13.3673 67(8) 76.7507 68.2327
5586 13.3693 76(9) 77.6425 68.2294
5587 13.3713 77(9) 78.6638 68.2262
5588 13.3733 82(9) 79.8244 68.2230
5589 13.3753 76(9) 81.1380 68.2197
5590 13.3773 76(9) 82.6215 68.2165
5591 13.3793 77(9) 84.2948 68.2133
5592 13.3813 78(9) 86.1797 68.2101
5593 13.3833 85(9) 88.2957 68.2069
5594 13.3853 94(10) 90.6472 68.2037
5595 13.3873 86(9) 93.2211 68.2006
5596 13.3893 92(10) 95.9746 68.1974
5597 13.3913 93(10) 98.8326 68.1942
5598 13.3933 99(10) 101.6865 68.1911
5599 13.3953 99(10) 104.3964 68.1879
5600 13.3973 96(10) 106.7943 68.1848
5601 13.3993 107(10) 108.7023 68.1817
5602 13.4013 113(11) 109.9395 68.1786
5603 13.4033 113(11) 110.3299 68.1754
5604 13.4053 127(11) 109.8434 68.1723
5605 13.4073 114(11) 108.4625 68.1692
5606 13.4093 108(10) 106.2993 68.1661
5607 13.4113 113(11) 103.5672 68.1630
5608 13.4133 101(10) 100.4649 68.1600
5609 13.4153 97(10) 97.2308 68.1569
5610 13.4173 89(9) 94.0477 68.1538
5611 13.4193 86(9) 91.0479 68.1508
5612 13.4213 82(9) 88.3158 68.1477
5613 13.4233 86(9) 85.8956 68.1447
5614 13.4253 83(9) 83.7872 68.1416
5615 13.4273 83(9) 82.0233 68.1386
5616 13.4293 78(9) 80.5655 68.1356
5617 13.4313 72(9) 79.3894 68.1326
5618 13.4333 81(9) 78.4604 68.1296
5619 13.4353 74(9) 77.7423 68.1266
5620 13.4373 80(9) 77.1974 68.1236
5621 13.4393 78(9) 76.7910 68.1206
5622 13.4413 75(9) 76.4919 68.1176
5623 13.4433 75(9) 76.2756 68.1146
5624 13.4453 77(9) 76.1242 68.1117
5625 13.4473 83(9) 76.0254 68.1087
5626 13.4493 77(9) 75.9710 68.1058
5627 13.4513 81(9) 75.9573 68.1028
5628 13.4533 80(9) 75.9851 68.0999
5629 13.4553 72(8) 76.0604 68.0970
5630 13.4573 69(8) 76.1932 68.0941
5631 13.4593 68(8) 76.3940 68.0911
5632 13.4613 77(9) 76.6864 68.0882
5633 13.4633 74(9) 77.0345 68.0853
5634 13.4653 76(9) 77.4278 68.0825
5635 13.4673 68(8) 77.8714 68.0796
5636 13.4693 76(9) 78.3170 68.0767
5637 13.4713 78(9) 78.7232 68.0738
5638 13.4733 75(9) 79.0446 68.0710
5639 13.4753 75(9) 79.2362 68.0681
5640 13.4773 80(9) 79.2599 68.0653
5641 13.4793 79(9) 79.0923 68.0624
5642 13.4813 82(9) 78.7318 68.0596
5643 13.4833 72(8) 78.2000 68.0568
5644 13.4853 76(9) 77.5377 68.0539
5645 13.4873 74(9) 76.7947 68.0511
5646 13.4893 81(9) 76.0193 68.0483
5647 13.4913 78(9) 75.2525 68.0455
5648 13.4933 78(9) 74.4325 68.0427
5649 13.4953 80(9) 73.7618 68.0400
5650 13.4973 72(8) 73.1588 68.0372
5651 13.4993 69(8) 72.5319 68.0344
5652 13.5013 76(9) 72.0751 68.0317
5653 13.5033 72(8) 71.6891 68.0289
5654 13.5053 75(9) 71.3703 68.0262
5655 13.5073 77(9) 71.1142 68.0234
5656 13.5093 72(8) 70.9163 68.0207
5657 13.5113 69(8) 70.7721 68.0180
5658 13.5133 77(9) 70.6779 68.0153
5659 13.5153 68(8) 70.6308 68.0125
5660 13.5173 70(8) 70.6293 68.0098
5661 13.5193 70(8) 70.6743 68.0071
5662 13.5213 77(9) 70.7690 68.0045
5663 13.5233 68(8) 70.9203 68.0018
5664 13.5253 72(8) 71.1387 67.9991
5665 13.5273 75(9) 71.4399 67.9964
5666 13.5293 70(8) 71.8443 67.9938
5667 13.5313 70(8) 72.3769 67.9911
5668 13.5333 74(9) 73.0677 67.9885
5669 13.5353 73(9) 73.9494 67.9858
5670 13.5373 69(8) 75.0550 67.9832
5671 13.5393 72(8) 76.4204 67.9806
5672 13.5413 69(8) 78.0579 67.9780
5673 13.5433 79(9) 79.9813 67.9754
5674 13.5453 74(9) 82.1829 67.9727
5675 13.5473 80(9) 84.6320 67.9702
5676 13.5493 80(9) 87.2730 67.9676
5677 13.5513 85(9) 90.0244 67.9650
5678 13.5533 93(10) 92.7814 67.9624
5679 13.5553 95(10) 95.4922 67.9598
5680 13.5573 96(10) 97.8796 67.9573
5681 13.5593 112(11) 99.8793 67.9547
5682 13.5613 112(11) 101.3720 67.9522
5683 13.5633 110(11) 102.2759 67.9496
5684 13.5653 109(10) 102.5711 67.9471
5685 13.5673 109(10) 102.3165 67.9446
5686 13.5693 110(10) 101.6478 67.9421
5687 13.5713 108(10) 100.7511 67.9395
5688 13.5733 98(10) 99.8242 67.9370
5689 13.5753 102(10) 99.0404 67.9345
5690 13.5773 102(10) 98.5255 67.9321
5691 13.5793 101(10) 98.3491 67.9296
5692 13.5813 99(10) 98.5106 67.9271
5693 13.5833 105(10) 99.0087 67.9246
5694 13.5853 91(10) 99.7560 67.9221
5695 13.5873 96(10) 100.6528 67.9197
5696 13.5893 96(10) 101.5815 67.9173
5697 13.5913 101(10) 102.4183 67.9148
5698 13.5933 90(9) 103.0488 67.9124
5699 13.5953 99(10) 103.3849 67.9099
5700 13.5973 94(10) 103.3874 67.9075
5701 13.5993 97(10) 103.0766 67.9051
5702 13.6013 93(10) 102.5293 67.9027
5703 13.6033 96(10) 101.8553 67.9003
5704 13.6053 100(10) 101.1777 67.8979
5705 13.6073 96(10) 100.5552 67.8955
5706 13.6093 93(10) 100.0408 67.8931
5707 13.6113 97(10) 99.6286 67.8908
5708 13.6133 96(10) 99.2748 67.8884
5709 13.6153 96(10) 98.9082 67.8860
5710 13.6173 94(10) 98.4451 67.8837
5711 13.6193 99(10) 97.8024 67.8813
5712 13.6213 99(10) 96.9103 67.8790
5713 13.6233 104(10) 95.7287 67.8767
5714 13.6253 96(10) 94.2511 67.8744
5715 13.6273 100(10) 92.5135 67.8720
5716 13.6293 92(10) 90.5884 67.8697
5717 13.6313 97(10) 88.5699 67.8674
5718 13.6333 91(10) 86.5537 67.8651
5719 13.6353 85(9) 84.6260 67.8628
5720 13.6373 87(9) 82.8513 67.8606
5721 13.6393 82(9) 81.2703 67.8583
5722 13.6413 75(9) 79.9230 67.8560
5723 13.6433 87(9) 78.8228 67.8538
5724 13.6453 81(9) 77.9794 67.8515
5725 13.6473 78(9) 77.3973 67.8493
5726 13.6493 80(9) 77.0728 67.8470
5727 13.6513 77(9) 77.0066 67.8448
5728 13.6533 86(9) 77.1820 67.8426
5729 13.6553 77(9) 77.5775 67.8403
5730 13.6573 78(9) 78.1619 67.8381
5731 13.6593 81(9) 78.8935 67.8359
5732 13.6613 83(9) 79.7196 67.8337
5733 13.6633 82(9) 80.5794 67.8315
5734 13.6653 80(9) 81.4050 67.8293
5735 13.6673 83(9) 82.0900 67.8271
5736 13.6693 82(9) 82.6363 67.8250
5737 13.6713 84(9) 82.9464 67.8228
5738 13.6733 75(9) 82.9769 67.8207
5739 13.6753 80(9) 82.7123 67.8185
5740 13.6773 77(9) 82.1707 67.8164
5741 13.6793 81(9) 81.4016 67.8142
5742 13.6813 76(9) 80.4752 67.8121
5743 13.6833 69(8) 79.4676 67.8100
5744 13.6853 73(9) 78.4483 67.8078
5745 13.6873 81(9) 77.4762 67.8057
5746 13.6893 73(9) 76.5953 67.8036
5747 13.6913 84(9) 75.8425 67.8015
5748 13.6933 80(9) 75.2343 67.7994
5749 13.6953 78(9) 74.7930 67.7974
5750 13.6973 78(9) 74.5327 67.7953
5751 13.6993 79(9) 74.4639 67.7932
5752 13.7013 75(9) 74.5906 67.7911
5753 13.7033 74(9) 74.9193 67.7891
5754 13.7053 76(9) 75.4418 67.7870
5755 13.7073 77(9) 76.1438 67.7850
5756 13.7093 81(9) 77.0006 67.7830
5757 13.7113 80(9) 77.9764 67.7809
5758 13.7133 79(9) 79.0247 67.7789
5759 13.7153 79(9) 80.1076 67.7769
5760 13.7173 81(9) 81.1207 67.7749
5761 13.7193 88(9) 82.0136 67.7729
5762 13.7213 80(9) 82.7160 67.7709
5763 13.7233 90(9) 83.1639 67.7689
5764 13.7253 90(9) 83.3093 67.7669
5765 13.7273 84(9) 83.1302 67.7649
5766 13.7293 93(10) 82.6388 67.7629
5767 13.7313 84(9) 81.8802 67.7610
5768 13.7333 87(9) 80.9234 67.7590
5769 13.7353 83(9) 79.8456 67.7571
5770 13.7373 85(9) 78.7188 67.7551
5771 13.7393 71(8) 77.6248 67.7532
5772 13.7413 72(8) 76.5596 67.7513
5773 13.7433 75(9) 75.5631 67.7493
5774 13.7453 69(8) 74.6730 67.7474
5775 13.7473 73(9) 73.8856 67.7455
5776 13.7493 71(8) 73.2022 67.7436
5777 13.7513 71(8) 72.6200 67.7417
5778 13.7533 81(9) 72.1348 67.7398
5779 13.7553 69(8) 71.7399 67.7379
5780 13.7573 70(8) 71.4285 67.7361
5781 13.7593 69(8) 71.1938 67.7342
5782 13.7613 66(8) 71.0290 67.7323
5783 13.7633 73(9) 70.9288 67.7305
5784 13.7653 76(9) 70.8888 67.7286
5785 13.7673 73(9) 70.9070 67.7268
5786 13.7693 66(8) 70.9835 67.7250
5787 13.7713 69(8) 71.1216 67.7231
5788 13.7733 64(8) 71.3281 67.7213
5789 13.7753 67(8) 71.6140 67.7195
5790 13.7773 74(9) 71.9946 67.7177
5791 13.7793 73(9) 72.4898 67.7159
5792 13.7813 74(9) 73.1251 67.7141
5793 13.7833 72(8) 73.9315 67.7123
5794 13.7853 73(9) 74.9449 67.7105
5795 13.7873 75(9) 76.2064 67.7087
5796 13.7893 72(8) 77.7602 67.7069
5797 13.7913 79(9) 79.6523 67.7052
5798 13.7933 83(9) 81.9375 67.7034
5799 13.7953 89(9) 84.6240 67.7017
5800 13.7973 84(9) 87.7454 67.6999
5801 13.7993 93(10) 91.3002 67.6982
5802 13.8013 100(10) 95.2653 67.6964
5803 13.8033 95(10) 99.5619 67.6947
5804 13.8053 104(10) 104.0986 67.6930
5805 13.8073 106(10) 108.7342 67.6913
5806 13.8093 102(10) 113.3006 67.6896
5807 13.8113 120(11) 117.5974 67.6879
5808 13.8133 121(11) 121.4003 67.6862
5809 13.8153 121(11) 124.4709 67.6845
5810 13.8173 124(11) 126.5777 67.6828
5811 13.8193 125(11) 127.5230 67.6811
5812 13.8213 125(11) 127.1904 67.6795
5813 13.8233 131(11) 125.5784 67.6778
5814 13.8253 125(11) 122.8167 67.6762
5815 13.8273 111(11) 119.1460 67.6745
5816 13.8293 110(11) 114.8298 67.6729
5817 13.8313 121(11) 110.2439 67.6712
5818 13.8333 106(10) 105.6441 67.6696
5819 13.8353 108(10) 101.1775 67.6680
5820 13.8373 102(10) 97.0121 67.6664
5821 13.8393 97(10) 93.2385 67.6648
5822 13.8413 98(10) 89.9076 67.6632
5823 13.8433 84(9) 87.0412 67.6616
5824 13.8453 86(9) 84.6453 67.6600
5825 13.8473 77(9) 82.7081 67.6584
5826 13.8493 77(9) 81.2299 67.6568
5827 13.8513 79(9) 80.1399 67.6552
5828 13.8533 83(9) 79.4198 67.6537
5829 13.8553 83(9) 79.0250 67.6521
5830 13.8573 79(9) 78.9026 67.6506
5831 13.8593 80(9) 78.9934 67.6490
5832 13.8613 81(9) 79.2325 67.6475
5833 13.8633 81(9) 79.5200 67.6459
5834 13.8653 79(9) 79.8522 67.6444
5835 13.8673 81(9) 80.1299 67.6429
5836 13.8693 85(9) 80.2930 67.6414
5837 13.8713 78(9) 80.2934 67.6399
5838 13.8733 74(9) 80.1016 67.6384
5839 13.8753 92(10) 79.7124 67.6369
5840 13.8773 74(9) 79.1456 67.6354
5841 13.8793 74(9) 78.4410 67.6339
5842 13.8813 82(9) 77.6485 67.6324
5843 13.8833 78(9) 76.8120 67.6310
5844 13.8853 76(9) 75.9862 67.6295
5845 13.8873 78(9) 75.1982 67.6280
5846 13.8893 81(9) 74.4781 67.6266
5847 13.8913 78(9) 73.8061 67.6252
5848 13.8933 77(9) 73.2412 67.6237
5849 13.8953 78(9) 72.7670 67.6223
5850 13.8973 75(9) 72.3863 67.6209
5851 13.8993 73(9) 72.1012 67.6194
5852 13.9013 75(9) 71.9133 67.6180
5853 13.9033 72(8) 71.8243 67.6166
5854 13.9053 73(9) 71.8363 67.6152
5855 13.9073 69(8) 71.9514 67.6138
5856 13.9093 77(9) 72.1712 67.6124
5857 13.9113 79(9) 72.4960 67.6111
5858 13.9133 75(9) 72.9565 67.6097
5859 13.9153 76(9) 73.4835 67.6083
5860 13.9173 81(9) 74.0993 67.6069
5861 13.9193 81(9) 74.7889 67.6056
5862 13.9213 80(9) 75.5312 67.6042
5863 13.9233 80(9) 76.2994 67.6029
5864 13.9253 76(9) 77.0600 67.6016
5865 13.9273 79(9) 77.7768 67.6002
5866 13.9293 79(9) 78.4114 67.5989
5867 13.9313 82(9) 78.9267 67.5976
5868 13.9333 82(9) 79.2917 67.5963
5869 13.9353 78(9) 79.4876 67.5950
5870 13.9373 75(9) 79.5135 67.5937
5871 13.9393 82(9) 79.3897 67.5924
5872 13.9413 78(9) 79.1393 67.5911
5873 13.9433 77(9) 78.8445 67.5898
5874 13.9453 73(9) 78.5413 67.5885
5875 13.9473 83(9) 78.2764 67.5873
5876 13.9493 85(9) 78.0874 67.5860
5877 13.9513 76(9) 78.0029 67.5847
5878 13.9533 75(9) 78.0518 67.5835
5879 13.9553 73(9) 78.2293 67.5822
5880 13.9573 80(9) 78.5534 67.5810
5881 13.9593 83(9) 79.0294 67.5798
5882 13.9613 78(9) 79.6603 67.5785
5883 13.9633 78(9) 80.4476 67.5773
5884 13.9653 78(9) 81.3888 67.5761
5885 13.9673 79(9) 82.4773 67.5749
5886 13.9693 88(9) 83.6977 67.5737
5887 13.9713 84(9) 85.0230 67.5725
5888 13.9733 78(9) 86.4132 67.5713
5889 13.9753 91(10) 87.8172 67.5701
5890 13.9773 92(10) 89.1731 67.5689
5891 13.9793 96(10) 90.4172 67.5678
5892 13.9813 87(9) 91.5083 67.5666
5893 13.9833 85(9) 92.3599 67.5654
5894 13.9853 96(10) 92.9680 67.5643
5895 13.9873 93(10) 93.3430 67.5631
5896 13.9893 99(10) 93.5291 67.5620
5897 13.9913 93(10) 93.5942 67.5609
5898 13.9933 95(10) 93.6109 67.5597
5899 13.9953 101(10) 93.6204 67.5586
5900 13.9973 99(10) 93.6873 67.5575
5901 13.9993 88(9) 93.7922 67.5564
5902 14.0013 91(10) 93.9021 67.5553
5903 14.0033 95(10) 93.9601 67.5542
5904 14.0053 94(10) 93.8941 67.5531
5905 14.0073 94(10) 93.6354 67.5520
5906 14.0093 91(10) 93.1036 67.5509
5907 14.0113 95(10) 92.2652 67.5499
5908 14.0133 101(10) 91.1174 67.5488
5909 14.0153 97(10) 89.6981 67.5477
5910 14.0173 98(10) 88.0809 67.5467
5911 14.0193 90(9) 86.3545 67.5456
5912 14.0213 84(9) 84.6076 67.5446
5913 14.0233 85(9) 82.9162 67.5435
5914 14.0253 84(9) 81.3387 67.5425
5915 14.0273 91(10) 79.9157 67.5415
5916 14.0293 72(8) 78.6763 67.5404
5917 14.0313 79(9) 77.6502 67.5394
5918 14.0333 81(9) 76.8242 67.5384
5919 14.0353 76(9) 76.2190 67.5374
5920 14.0373 72(9) 75.8407 67.5364
5921 14.0393 73(9) 75.6937 67.5354
5922 14.0413 77(9) 75.7801 67.5344
5923 14.0433 77(9) 76.0980 67.5335
5924 14.0453 82(9) 76.6407 67.5325
5925 14.0473 73(9) 77.3941 67.5315
5926 14.0493 79(9) 78.3359 67.5306
5927 14.0513 80(9) 79.4339 67.5296
5928 14.0533 83(9) 80.6461 67.5286
5929 14.0553 82(9) 81.9213 67.5277
5930 14.0573 79(9) 83.1983 67.5268
5931 14.0593 80(9) 84.4120 67.5258
5932 14.0613 86(9) 85.4947 67.5249
5933 14.0633 91(10) 86.3830 67.5240
5934 14.0653 87(9) 87.0256 67.5231
5935 14.0673 92(10) 87.3923 67.5222
5936 14.0693 81(9) 87.4818 67.5213
5937 14.0713 84(9) 87.3255 67.5204
5938 14.0733 86(9) 86.9837 67.5195
5939 14.0753 77(9) 86.5327 67.5186
5940 14.0773 89(9) 86.0765 67.5177
5941 14.0793 83(9) 85.7038 67.5168
5942 14.0813 77(9) 85.5007 67.5160
5943 14.0833 83(9) 85.5382 67.5151
5944 14.0853 91(10) 85.8674 67.5142
5945 14.0873 79(9) 86.5176 67.5134
5946 14.0893 89(9) 87.4954 67.5125
5947 14.0913 93(10) 88.7852 67.5117
5948 14.0933 89(9) 90.2824 67.5109
5949 14.0953 88(9) 92.0669 67.5100
5950 14.0973 94(10) 93.9944 67.5092
5951 14.0993 95(10) 95.9736 67.5084
5952 14.1013 99(10) 97.9015 67.5076
5953 14.1033 106(10) 99.6691 67.5068
5954 14.1053 115(11) 101.1730 67.5060
5955 14.1073 115(11) 102.3286 67.5052
5956 14.1093 121(11) 103.0808 67.5044
5957 14.1113 110(10) 103.4120 67.5036
5958 14.1133 102(10) 103.3520 67.5028
5959 14.1153 102(10) 102.8908 67.5021
5960 14.1173 95(10) 102.0736 67.5013
5961 14.1193 109(10) 100.9209 67.5005
5962 14.1213 93(10) 99.4529 67.4998
5963 14.1233 98(10) 97.6980 67.4990
5964 14.1253 92(10) 95.7047 67.4983
5965 14.1273 94(10) 93.5453 67.4976
5966 14.1293 89(9) 91.3089 67.4968
5967 14.1313 87(9) 89.0888 67.4961
5968 14.1333 84(9) 86.9686 67.4954
5969 14.1353 89(9) 85.0182 67.4947
5970 14.1373 84(9) 83.2938 67.4940
5971 14.1393 85(9) 81.8086 67.4933
5972 14.1413 79(9) 80.5868 67.4926
5973 14.1433 78(9) 79.6323 67.4919
5974 14.1453 81(9) 78.9284 67.4912
5975 14.1473 81(9) 78.4930 67.4905
5976 14.1493 78(9) 78.2926 67.4898
5977 14.1513 82(9) 78.3148 67.4892
5978 14.1533 79(9) 78.5434 67.4885
5979 14.1553 77(9) 78.9627 67.4879
5980 14.1573 82(9) 79.5580 67.4872
5981 14.1593 77(9) 80.3168 67.4866
5982 14.1613 80(9) 81.2271 67.4859
5983 14.1633 77(9) 82.2843 67.4853
5984 14.1653 80(9) 83.4749 67.4846
5985 14.1673 83(9) 84.7976 67.4840
5986 14.1693 84(9) 86.2458 67.4834
5987 14.1713 83(9) 87.8046 67.4828
5988 14.1733 92(10) 89.4461 67.4822
5989 14.1753 87(9) 91.1211 67.4816
5990 14.1773 92(10) 92.7628 67.4810
5991 14.1793 87(9) 94.2855 67.4804
5992 14.1813 97(10) 95.5910 67.4798
5993 14.1833 105(10) 96.5761 67.4792
5994 14.1853 98(10) 97.1448 67.4787
5995 14.1873 102(10) 97.2243 67.4781
5996 14.1893 104(10) 96.7820 67.4775
5997 14.1913 102(10) 95.8382 67.4770
5998 14.1933 107(10) 94.4671 67.4764
5999 14.1953 98(10) 92.7835 67.4759
6000 14.1973 92(10) 90.9195 67.4753
6001 14.1993 96(10) 89.0019 67.4748
6002 14.2013 90(9) 87.1409 67.4743
6003 14.2033 84(9) 85.4178 67.4737
6004 14.2053 76(9) 83.8891 67.4732
6005 14.2073 86(9) 82.5887 67.4727
6006 14.2093 83(9) 81.5205 67.4722
6007 14.2113 76(9) 80.7074 67.4717
6008 14.2133 83(9) 80.1275 67.4712
6009 14.2153 80(9) 79.7603 67.4707
6010 14.2173 75(9) 79.6275 67.4702
6011 14.2193 79(9) 79.6016 67.4697
6012 14.2213 82(9) 79.6968 67.4693
6013 14.2233 85(9) 79.8793 67.4688
6014 14.2253 86(9) 80.1180 67.4683
6015 14.2273 88(9) 80.3875 67.4679
6016 14.2293 88(9) 80.6728 67.4674
6017 14.2313 87(9) 80.9711 67.4670
6018 14.2333 77(9) 81.2937 67.4665
6019 14.2353 85(9) 81.6575 67.4661
6020 14.2373 88(9) 82.0931 67.4657
6021 14.2393 84(9) 82.6137 67.4652
6022 14.2413 86(9) 83.2230 67.4648
6023 14.2433 87(9) 83.9099 67.4644
6024 14.2453 82(9) 84.6468 67.4640
6025 14.2473 81(9) 85.3925 67.4636
6026 14.2493 80(9) 86.0950 67.4632
6027 14.2513 87(9) 86.6971 67.4628
6028 14.2533 84(9) 87.1402 67.4624
6029 14.2553 79(9) 87.3751 67.4620
6030 14.2573 91(10) 87.3697 67.4616
6031 14.2593 77(9) 87.0950 67.4613
6032 14.2613 76(9) 86.6227 67.4609
6033 14.2633 81(9) 85.9810 67.4605
6034 14.2653 88(9) 85.2368 67.4602
6035 14.2673 77(9) 84.4596 67.4598
6036 14.2693 82(9) 83.7081 67.4595
6037 14.2713 81(9) 83.0252 67.4591
6038 14.2733 86(9) 82.4367 67.4588
6039 14.2753 86(9) 81.9532 67.4585
6040 14.2773 83(9) 81.6039 67.4581
6041 14.2793 84(9) 81.3184 67.4578
6042 14.2813 83(9) 81.1128 67.4575
6043 14.2833 76(9) 80.9720 67.4572
6044 14.2853 81(9) 80.8841 67.4569
6045 14.2873 77(9) 80.8186 67.4566
6046 14.2893 79(9) 80.8212 67.4563
6047 14.2913 84(9) 80.8683 67.4560
6048 14.2933 84(9) 80.9573 67.4557
6049 14.2953 81(9) 81.0784 67.4554
6050 14.2973 84(9) 81.2123 67.4552
6051 14.2993 79(9) 81.3304 67.4549
6052 14.3013 85(9) 81.3969 67.4546
6053 14.3033 77(9) 81.3728 67.4544
6054 14.3053 83(9) 81.2213 67.4541
6055 14.3073 89(9) 80.9146 67.4539
6056 14.3093 85(9) 80.4405 67.4536
6057 14.3113 86(9) 79.8066 67.4534
6058 14.3133 84(9) 79.0394 67.4531
6059 14.3153 82(9) 78.1785 67.4529
6060 14.3173 83(9) 77.2677 67.4527
6061 14.3193 71(8) 76.3490 67.4525
6062 14.3213 74(9) 75.4554 67.4523
6063 14.3233 75(9) 74.6112 67.4521
6064 14.3253 74(9) 73.8456 67.4519
6065 14.3273 82(9) 73.1406 67.4517
6066 14.3293 68(8) 72.5129 67.4515
6067 14.3313 73(9) 71.9623 67.4513
6068 14.3333 74(9) 71.4897 67.4511
6069 14.3353 66(8) 71.0856 67.4509
6070 14.3373 74(9) 70.7484 67.4508
6071 14.3393 75(9) 70.4731 67.4506
6072 14.3413 70(8) 70.2556 67.4504
6073 14.3433 73(9) 70.0779 67.4503
6074 14.3453 63(8) 69.9646 67.4501
6075 14.3473 79(9) 69.8995 67.4500
6076 14.3493 69(8) 69.8751 67.4498
6077 14.3513 70(8) 69.9068 67.4497
6078 14.3533 73(9) 69.9907 67.4496
6079 14.3553 77(9) 70.1325 67.4494
6080 14.3573 72(8) 70.3400 67.4493
6081 14.3593 71(8) 70.6230 67.4492
6082 14.3613 70(8) 70.9927 67.4491
6083 14.3633 74(9) 71.4610 67.4490
6084 14.3653 77(9) 72.0391 67.4489
6085 14.3673 76(9) 72.7360 67.4488
6086 14.3693 77(9) 73.5571 67.4487
6087 14.3713 69(8) 74.5012 67.4486
6088 14.3733 72(8) 75.5607 67.4485
6089 14.3753 83(9) 76.7194 67.4485
6090 14.3773 77(9) 77.9524 67.4484
6091 14.3793 75(9) 79.2260 67.4483
6092 14.3813 73(9) 80.4989 67.4483
6093 14.3833 84(9) 81.7245 67.4482
6094 14.3853 79(9) 82.8241 67.4482
6095 14.3873 80(9) 83.8007 67.4481
6096 14.3893 75(9) 84.5819 67.4481
6097 14.3913 73(9) 85.1342 67.4480
6098 14.3933 78(9) 85.4467 67.4480
6099 14.3953 83(9) 85.5260 67.4480
6100 14.3973 79(9) 85.4114 67.4480
6101 14.3993 74(9) 85.1574 67.4479
6102 14.4013 77(9) 84.8015 67.4479
6103 14.4033 78(9) 84.4404 67.4479
6104 14.4053 83(9) 84.0901 67.4479
6105 14.4073 80(9) 83.7712 67.4479
6106 14.4093 85(9) 83.4871 67.4479
6107 14.4113 74(9) 83.2278 67.4479
6108 14.4133 80(9) 82.9739 67.4480
6109 14.4153 89(9) 82.7021 67.4480
6110 14.4173 83(9) 82.3916 67.4480
6111 14.4193 74(9) 82.0283 67.4480
6112 14.4213 78(9) 81.6181 67.4481
6113 14.4233 81(9) 81.1465 67.4481
6114 14.4253 83(9) 80.6346 67.4482
6115 14.4273 89(9) 80.0953 67.4482
6116 14.4293 83(9) 79.5414 67.4483
6117 14.4313 79(9) 78.9844 67.4483
6118 14.4333 77(9) 78.4341 67.4484
6119 14.4353 73(9) 77.8977 67.4485
6120 14.4373 83(9) 77.3800 67.4485
6121 14.4393 89(9) 76.8817 67.4486
6122 14.4413 80(9) 76.4010 67.4487
6123 14.4433 80(9) 75.9287 67.4488
6124 14.4453 78(9) 75.4777 67.4489
6125 14.4473 72(8) 75.0445 67.4490
6126 14.4493 75(9) 74.6378 67.4491
6127 14.4513 75(9) 74.2722 67.4492
6128 14.4533 66(8) 73.9651 67.4493
6129 14.4553 79(9) 73.7370 67.4494
6130 14.4573 78(9) 73.6093 67.4495
6131 14.4593 79(9) 73.6051 67.4497
6132 14.4613 77(9) 73.7490 67.4498
6133 14.4633 68(8) 74.0676 67.4499
6134 14.4653 75(9) 74.5898 67.4501
6135 14.4673 72(8) 75.3137 67.4502
6136 14.4693 75(9) 76.3347 67.4504
6137 14.4713 76(9) 77.6476 67.4505
6138 14.4733 77(9) 79.2739 67.4507
6139 14.4753 92(10) 81.2257 67.4509
6140 14.4773 81(9) 83.4972 67.4510
6141 14.4793 85(9) 86.0666 67.4512
6142 14.4813 76(9) 88.8885 67.4514
6143 14.4833 86(9) 91.8933 67.4516
6144 14.4853 90(10) 94.9869 67.4517
6145 14.4873 93(10) 98.0526 67.4519
6146 14.4893 94(10) 100.9561 67.4521
6147 14.4913 94(10) 103.5459 67.4523
6148 14.4933 95(10) 105.6700 67.4525
6149 14.4953 109(10) 107.1840 67.4527
6150 14.4973 98(10) 107.9694 67.4530
6151 14.4993 104(10) 107.9567 67.4532
6152 14.5013 98(10) 107.1428 67.4534
6153 14.5033 100(10) 105.6006 67.4536
6154 14.5053 119(11) 103.4645 67.4539
6155 14.5073 98(10) 100.9059 67.4541
6156 14.5093 96(10) 98.0932 67.4543
6157 14.5113 95(10) 95.2048 67.4546
6158 14.5133 92(10) 92.3620 67.4548
6159 14.5153 94(10) 89.6617 67.4551
6160 14.5173 88(9) 87.1770 67.4554
6161 14.5193 78(9) 84.9547 67.4556
6162 14.5213 83(9) 83.0269 67.4559
6163 14.5233 84(9) 81.4150 67.4562
6164 14.5253 77(9) 80.1331 67.4564
6165 14.5273 78(9) 79.1905 67.4567
6166 14.5293 75(9) 78.5942 67.4570
6167 14.5313 84(9) 78.3465 67.4573
6168 14.5333 82(9) 78.4461 67.4576
6169 14.5353 90(9) 78.8857 67.4579
6170 14.5373 88(9) 79.6505 67.4582
6171 14.5393 79(9) 80.6963 67.4585
6172 14.5413 82(9) 82.0261 67.4588
6173 14.5433 89(9) 83.5694 67.4591
6174 14.5453 78(9) 85.2638 67.4595
6175 14.5473 88(9) 87.0331 67.4598
6176 14.5493 86(9) 88.7903 67.4601
6177 14.5513 96(10) 90.4393 67.4605
6178 14.5533 81(9) 91.8805 67.4608
6179 14.5553 85(9) 93.0280 67.4611
6180 14.5573 85(9) 93.7827 67.4615
6181 14.5593 88(9) 94.0580 67.4619
6182 14.5613 86(9) 93.8390 67.4622
6183 14.5633 81(9) 93.1412 67.4626
6184 14.5653 88(9) 92.0255 67.4629
6185 14.5673 90(9) 90.5804 67.4633
6186 14.5693 85(9) 88.9359 67.4637
6187 14.5713 88(9) 87.1976 67.4641
6188 14.5733 86(9) 85.4656 67.4644
6189 14.5753 85(9) 83.8210 67.4648
6190 14.5773 83(9) 82.3250 67.4652
6191 14.5793 82(9) 81.0212 67.4656
6192 14.5813 81(9) 79.9385 67.4660
6193 14.5833 86(9) 79.0954 67.4664
6194 14.5853 86(9) 78.4985 67.4668
6195 14.5873 80(9) 78.1465 67.4672
6196 14.5893 77(9) 78.0291 67.4677
6197 14.5913 79(9) 78.1150 67.4681
6198 14.5933 79(9) 78.4019 67.4685
6199 14.5953 82(9) 78.8410 67.4689
6200 14.5973 84(9) 79.3889 67.4694
6201 14.5993 83(9) 79.9951 67.4698
6202 14.6013 84(9) 80.6044 67.4703
6203 14.6033 82(9) 81.1591 67.4707
6204 14.6053 81(9) 81.6020 67.4712
6205 14.6073 79(9) 81.8820 67.4716
6206 14.6093 91(10) 81.9588 67.4721
6207 14.6113 89(9) 81.8106 67.4725
6208 14.6133 83(9) 81.4368 67.4730
6209 14.6153 86(9) 80.8577 67.4735
6210 14.6173 88(9) 80.1101 67.4740
6211 14.6193 85(9) 79.2393 67.4744
6212 14.6213 80(9) 78.2935 67.4749
6213 14.6233 83(9) 77.3164 67.4754
6214 14.6253 80(9) 76.3449 67.4759
6215 14.6273 76(9) 75.4083 67.4764
6216 14.6293 72(8) 74.5274 67.4769
6217 14.6313 75(9) 73.7162 67.4774
6218 14.6333 72(8) 72.9825 67.4779
6219 14.6353 63(8) 72.3307 67.4784
6220 14.6373 74(9) 71.7621 67.4790
6221 14.6393 69(8) 71.2727 67.4795
6222 14.6413 70(8) 70.8607 67.4800
6223 14.6433 68(8) 70.5222 67.4805
6224 14.6453 72(9) 70.2526 67.4811
6225 14.6473 69(8) 70.0476 67.4816
6226 14.6493 75(9) 69.9026 67.4822
6227 14.6513 66(8) 69.8131 67.4827
6228 14.6533 65(8) 69.7747 67.4833
6229 14.6553 70(8) 69.7832 67.4838
6230 14.6573 74(9) 69.8347 67.4844
6231 14.6593 68(8) 69.9248 67.4849
6232 14.6613 69(8) 70.0493 67.4855
6233 14.6633 70(8) 70.2038 67.4861
6234 14.6653 68(8) 70.3836 67.4866
6235 14.6673 66(8) 70.5844 67.4872
6236 14.6693 71(8) 70.8019 67.4878
6237 14.6713 70(8) 71.0321 67.4884
6238 14.6733 76(9) 71.2721 67.4890
6239 14.6753 66(8) 71.5239 67.4896
6240 14.6773 71(8) 71.7600 67.4902
6241 14.6793 75(9) 72.0218 67.4908
6242 14.6813 75(9) 72.3019 67.4914
6243 14.6833 68(8) 72.5910 67.4920
6244 14.6853 65(8) 72.9033 67.4926
6245 14.6873 75(9) 73.2449 67.4932
6246 14.6893 71(8) 73.6192 67.4939
6247 14.6913 70(8) 74.0250 67.4945
6248 14.6933 69(8) 74.4549 67.4951
6249 14.6953 76(9) 74.8952 67.4957
6250 14.6973 73(9) 75.3264 67.4964
6251 14.6993 70(8) 75.7244 67.4970
6252 14.7013 74(9) 76.0617 67.4977
6253 14.7033 73(9) 76.3017 67.4983
6254 14.7053 73(9) 76.4353 67.4990
6255 14.7073 81(9) 76.4339 67.4996
6256 14.7093 75(9) 76.2874 67.5003
6257 14.7113 85(9) 75.9990 67.5010
6258 14.7133 70(8) 75.5818 67.5016
6259 14.7153 79(9) 75.0706 67.5023
6260 14.7173 77(9) 74.4939 67.5030
6261 14.7193 72(8) 73.8835 67.5037
6262 14.7213 74(9) 73.2671 67.5043
6263 14.7233 75(9) 72.6663 67.5050
6264 14.7253 70(8) 72.0963 67.5057
6265 14.7273 70(8) 71.5677 67.5064
6266 14.7293 70(8) 71.0882 67.5071
6267 14.7313 70(8) 70.6519 67.5078
6268 14.7333 64(8) 70.2689 67.5085
6269 14.7353 67(8) 69.9340 67.5092
6270 14.7373 74(9) 69.6447 67.5099
6271 14.7393 68(8) 69.3981 67.5107
6272 14.7413 69(8) 69.1904 67.5114
6273 14.7433 75(9) 69.0178 67.5121
6274 14.7453 66(8) 68.8764 67.5128
6275 14.7473 70(8) 68.7623 67.5136
6276 14.7493 68(8) 68.6716 67.5143
6277 14.7513 71(8) 68.6008 67.5151
6278 14.7533 68(8) 68.5468 67.5158
6279 14.7553 69(8) 68.5066 67.5165
6280 14.7573 69(8) 68.4779 67.5173
6281 14.7593 63(8) 68.4585 67.5181
6282 14.7613 66(8) 68.4469 67.5188
6283 14.7633 64(8) 68.4448 67.5196
6284 14.7653 60(8) 68.4449 67.5203
6285 14.7673 71(8) 68.4495 67.5211
6286 14.7693 67(8) 68.4580 67.5219
6287 14.7713 66(8) 68.4698 67.5227
6288 14.7733 71(8) 68.4845 67.5234
6289 14.7753 73(9) 68.5018 67.5242
6290 14.7773 72(8) 68.5213 67.5250
6291 14.7793 69(8) 68.5432 67.5258
6292 14.7813 72(8) 68.5673 67.5266
6293 14.7833 76(9) 68.5940 67.5274
6294 14.7853 72(8) 68.5759 67.5282
6295 14.7873 70(8) 68.6106 67.5290
6296 14.7893 71(8) 68.6511 67.5298
6297 14.7913 70(8) 68.6993 67.5306
6298 14.7933 72(8) 68.7579 67.5314
6299 14.7953 78(9) 68.8305 67.5323
6300 14.7973 71(8) 68.9215 67.5331
6301 14.7993 68(8) 69.0363 67.5339
6302 14.8013 68(8) 69.1831 67.5347
6303 14.8033 67(8) 69.3706 67.5356
6304 14.8053 58(8) 69.6104 67.5364
6305 14.8073 68(8) 69.9164 67.5373
6306 14.8093 72(9) 70.3049 67.5381
6307 14.8113 74(9) 70.7948 67.5390
6308 14.8133 69(8) 71.4062 67.5398
6309 14.8153 77(9) 72.1603 67.5407
6310 14.8173 80(9) 73.0778 67.5415
6311 14.8193 73(9) 74.1751 67.5424
6312 14.8213 75(9) 75.4646 67.5432
6313 14.8233 75(9) 76.9503 67.5441
6314 14.8253 79(9) 78.6258 67.5450
6315 14.8273 85(9) 80.4775 67.5459
6316 14.8293 92(10) 82.4606 67.5467
6317 14.8313 87(9) 84.5297 67.5476
6318 14.8333 81(9) 86.6220 67.5485
6319 14.8353 90(9) 88.6601 67.5494
6320 14.8373 88(9) 90.5561 67.5503
6321 14.8393 99(10) 92.2154 67.5512
6322 14.8413 94(10) 93.5427 67.5521
6323 14.8433 87(9) 94.4514 67.5530
6324 14.8453 99(10) 94.8725 67.5539
6325 14.8473 100(10) 94.7708 67.5548
6326 14.8493 96(10) 94.1216 67.5557
6327 14.8513 93(10) 93.0349 67.5566
6328 14.8533 96(10) 91.5652 67.5575
6329 14.8553 90(9) 89.8184 67.5585
6330 14.8573 87(9) 87.9028 67.5594
6331 14.8593 89(9) 85.9189 67.5603
6332 14.8613 88(9) 83.9465 67.5613
6333 14.8633 84(9) 82.0459 67.5622
6334 14.8653 86(9) 80.2587 67.5631
6335 14.8673 83(9) 78.6111 67.5641
6336 14.8693 80(9) 77.1163 67.5650
6337 14.8713 76(9) 75.7809 67.5660
6338 14.8733 69(8) 74.6029 67.5669
6339 14.8753 80(9) 73.5882 67.5679
6340 14.8773 82(9) 72.7049 67.5688
6341 14.8793 69(8) 71.9539 67.5698
6342 14.8813 75(9) 71.3230 67.5708
6343 14.8833 73(9) 70.7995 67.5717
6344 14.8853 78(9) 70.3709 67.5727
6345 14.8873 69(8) 70.0245 67.5737
6346 14.8893 74(9) 69.7486 67.5747
6347 14.8913 73(9) 69.5322 67.5756
6348 14.8933 72(8) 69.3657 67.5766
6349 14.8953 71(8) 69.2410 67.5776
6350 14.8973 81(9) 69.1510 67.5786
6351 14.8993 69(8) 69.0770 67.5796
6352 14.9013 69(8) 69.0413 67.5806
6353 14.9033 73(9) 69.0267 67.5816
6354 14.9053 63(8) 69.0305 67.5826
6355 14.9073 71(8) 69.0476 67.5836
6356 14.9093 76(9) 69.0809 67.5846
6357 14.9113 65(8) 69.1257 67.5856
6358 14.9133 70(8) 69.1796 67.5866
6359 14.9153 65(8) 69.2402 67.5877
6360 14.9173 62(8) 69.3051 67.5887
6361 14.9193 65(8) 69.3719 67.5897
6362 14.9213 70(8) 69.4384 67.5907
6363 14.9233 61(8) 69.5028 67.5918
6364 14.9253 67(8) 69.5643 67.5928
6365 14.9273 69(8) 69.6233 67.5938
6366 14.9293 68(8) 69.6822 67.5949
6367 14.9313 69(8) 69.7459 67.5959
6368 14.9333 67(8) 69.8213 67.5970
6369 14.9353 70(8) 69.9176 67.5980
6370 14.9373 72(8) 70.0449 67.5991
6371 14.9393 68(8) 70.2139 67.6001
6372 14.9413 69(8) 70.4355 67.6012
6373 14.9433 76(9) 70.7166 67.6022
6374 14.9453 66(8) 71.0645 67.6033
6375 14.9473 73(9) 71.4827 67.6044
6376 14.9493 68(8) 71.9715 67.6054
6377 14.9513 71(8) 72.5261 67.6065
6378 14.9533 73(9) 73.1377 67.6076
6379 14.9553 70(8) 73.7923 67.6087
6380 14.9573 68(8) 74.4707 67.6097
6381 14.9593 75(9) 75.1497 67.6108
6382 14.9613 72(8) 75.8009 67.6119
6383 14.9633 71(8) 76.3988 67.6130
6384 14.9653 76(9) 76.9022 67.6141
6385 14.9673 78(9) 77.2865 67.6152
6386 14.9693 85(9) 77.5265 67.6163
6387 14.9713 71(8) 77.6025 67.6174
6388 14.9733 71(8) 77.5136 67.6185
6389 14.9753 68(8) 77.2623 67.6196
6390 14.9773 73(9) 76.8666 67.6207
6391 14.9793 70(8) 76.3538 67.6218
6392 14.9813 73(9) 75.7571 67.6229
6393 14.9833 67(8) 75.1115 67.6241
6394 14.9853 74(9) 74.4492 67.6252
6395 14.9873 69(8) 73.7972 67.6263
6396 14.9893 71(8) 73.1773 67.6274
6397 14.9913 76(9) 72.6043 67.6286
6398 14.9933 74(9) 72.0885 67.6297
6399 14.9953 68(8) 71.6357 67.6308
6400 14.9973 69(8) 71.2486 67.6320
6401 14.9993 73(9) 70.9178 67.6331
6402 15.0013 70(8) 70.6609 67.6343
6403 15.0033 73(9) 70.4647 67.6354
6404 15.0053 69(8) 70.3244 67.6365
6405 15.0073 72(8) 70.2342 67.6377
6406 15.0093 75(9) 70.1873 67.6388
6407 15.0113 65(8) 70.1761 67.6400
6408 15.0133 73(9) 70.1924 67.6412
6409 15.0153 67(8) 70.2300 67.6423
6410 15.0173 69(8) 70.2749 67.6435
6411 15.0193 75(9) 70.3211 67.6447
6412 15.0213 85(9) 70.3607 67.6458
6413 15.0233 73(9) 70.3879 67.6470
6414 15.0253 70(8) 70.3996 67.6482
6415 15.0273 73(9) 70.3958 67.6494
6416 15.0293 70(8) 70.3794 67.6506
6417 15.0313 66(8) 70.3556 67.6517
6418 15.0333 72(9) 70.3304 67.6529
6419 15.0353 65(8) 70.3099 67.6541
6420 15.0373 74(9) 70.2994 67.6553
6421 15.0393 68(8) 70.3027 67.6565
6422 15.0413 68(8) 70.3221 67.6577
6423 15.0433 68(8) 70.3583 67.6589
6424 15.0453 67(8) 70.4100 67.6601
6425 15.0473 74(9) 70.4775 67.6613
6426 15.0493 69(8) 70.5573 67.6625
6427 15.0513 69(8) 70.6306 67.6637
6428 15.0533 65(8) 70.6973 67.6649
6429 15.0553 70(8) 70.7494 67.6661
6430 15.0573 69(8) 70.7773 67.6674
6431 15.0593 70(8) 70.7749 67.6686
6432 15.0613 72(8) 70.7382 67.6698
6433 15.0633 69(8) 70.6845 67.6710
6434 15.0653 64(8) 70.5816 67.6722
6435 15.0673 67(8) 70.4526 67.6735
6436 15.0693 68(8) 70.3048 67.6747
6437 15.0713 65(8) 70.1460 67.6759
6438 15.0733 69(8) 69.9835 67.6772
6439 15.0753 64(8) 69.8242 67.6784
6440 15.0773 68(8) 69.6742 67.6797
6441 15.0793 67(8) 69.5390 67.6809
6442 15.0813 65(8) 69.4237 67.6821
6443 15.0833 72(8) 69.3326 67.6834
6444 15.0853 71(8) 69.2693 67.6847
6445 15.0873 62(8) 69.2374 67.6859
6446 15.0893 60(8) 69.2395 67.6872
6447 15.0913 64(8) 69.2781 67.6884
6448 15.0933 67(8) 69.3550 67.6897
6449 15.0953 70(8) 69.4714 67.6909
6450 15.0973 72(8) 69.6278 67.6922
6451 15.0993 75(9) 69.8238 67.6935
6452 15.1013 66(8) 70.0578 67.6947
6453 15.1033 71(8) 70.3271 67.6960
6454 15.1053 77(9) 70.6274 67.6973
6455 15.1073 74(9) 70.9529 67.6986
6456 15.1093 71(8) 71.3068 67.6999
6457 15.1113 70(8) 71.6575 67.7011
6458 15.1133 78(9) 72.0044 67.7024
6459 15.1153 66(8) 72.3342 67.7037
6460 15.1173 72(8) 72.6321 67.7050
6461 15.1193 74(9) 72.8827 67.7063
6462 15.1213 79(9) 73.0718 67.7076
6463 15.1233 70(8) 73.1888 67.7089
6464 15.1253 80(9) 73.2288 67.7102
6465 15.1273 72(8) 73.1943 67.7115
6466 15.1293 70(8) 73.0954 67.7128
6467 15.1313 81(9) 72.9580 67.7141
6468 15.1333 72(8) 72.7811 67.7154
6469 15.1353 67(8) 72.5955 67.7167
6470 15.1373 68(8) 72.4213 67.7180
6471 15.1393 64(8) 72.2772 67.7193
6472 15.1413 69(8) 72.1653 67.7206
6473 15.1433 72(8) 72.1110 67.7219
6474 15.1453 72(9) 72.1455 67.7233
6475 15.1473 68(8) 72.2607 67.7246
6476 15.1493 72(8) 72.4599 67.7259
6477 15.1513 69(8) 72.7435 67.7272
6478 15.1533 74(9) 73.1079 67.7286
6479 15.1553 75(9) 73.5449 67.7299
6480 15.1573 76(9) 74.0421 67.7312
6481 15.1593 73(9) 74.5831 67.7326
6482 15.1613 85(9) 75.1461 67.7339
6483 15.1633 75(9) 75.7060 67.7352
6484 15.1653 76(9) 76.2340 67.7366
6485 15.1673 79(9) 76.6981 67.7379
6486 15.1693 81(9) 77.0661 67.7393
6487 15.1713 87(9) 77.3087 67.7406
6488 15.1733 77(9) 77.4035 67.7420
6489 15.1753 80(9) 77.3399 67.7433
6490 15.1773 77(9) 77.1206 67.7447
6491 15.1793 77(9) 76.7608 67.7460
6492 15.1813 74(9) 76.2902 67.7474
6493 15.1833 77(9) 75.7270 67.7487
6494 15.1853 69(8) 75.1070 67.7501
6495 15.1873 74(9) 74.4553 67.7515
6496 15.1893 73(9) 73.7971 67.7528
6497 15.1913 72(8) 73.1526 67.7542
6498 15.1933 72(9) 72.5377 67.7556
6499 15.1953 65(8) 71.9648 67.7569
6500 15.1973 70(8) 71.4426 67.7583
6501 15.1993 66(8) 70.9764 67.7597
6502 15.2013 67(8) 70.5692 67.7611
6503 15.2033 72(8) 70.2210 67.7624
6504 15.2053 69(8) 69.9302 67.7638
6505 15.2073 66(8) 69.6935 67.7652
6506 15.2093 69(8) 69.5072 67.7666
6507 15.2113 73(9) 69.3668 67.7680
6508 15.2133 71(8) 69.2681 67.7694
6509 15.2153 71(8) 69.2069 67.7707
6510 15.2173 69(8) 69.1795 67.7721
6511 15.2193 69(8) 69.1830 67.7735
6512 15.2213 74(9) 69.2150 67.7749
6513 15.2233 60(8) 69.2738 67.7763
6514 15.2253 71(8) 69.3571 67.7777
6515 15.2273 71(8) 69.4665 67.7791
6516 15.2293 72(8) 69.6002 67.7805
6517 15.2313 68(8) 69.7729 67.7819
6518 15.2333 66(8) 69.9539 67.7833
6519 15.2353 76(9) 70.1571 67.7847
6520 15.2373 71(8) 70.3809 67.7861
6521 15.2393 70(8) 70.6230 67.7876
6522 15.2413 66(8) 70.8810 67.7890
6523 15.2433 73(9) 71.1519 67.7904
6524 15.2453 73(9) 71.4424 67.7918
6525 15.2473 79(9) 71.7280 67.7932
6526 15.2493 75(9) 72.0134 67.7946
6527 15.2513 70(8) 72.2918 67.7961
6528 15.2533 75(9) 72.5541 67.7975
6529 15.2553 75(9) 72.7898 67.7989
6530 15.2573 68(8) 72.9868 67.8003
6531 15.2593 79(9) 73.1330 67.8018
6532 15.2613 76(9) 73.2173 67.8032
6533 15.2633 68(8) 73.2321 67.8046
6534 15.2653 78(9) 73.1747 67.8061
6535 15.2673 69(8) 73.0439 67.8075
6536 15.2693 72(8) 72.8574 67.8089
6537 15.2713 76(9) 72.6234 67.8104
6538 15.2733 72(8) 72.3490 67.8118
6539 15.2753 71(8) 72.0637 67.8132
6540 15.2773 67(8) 71.7736 67.8147
6541 15.2793 70(8) 71.4911 67.8161
6542 15.2813 67(8) 71.2264 67.8176
6543 15.2833 71(8) 70.9879 67.8190
6544 15.2853 60(8) 70.7824 67.8205
6545 15.2873 71(8) 70.6147 67.8219
6546 15.2893 69(8) 70.4938 67.8234
6547 15.2913 68(8) 70.4099 67.8248
6548 15.2933 64(8) 70.3689 67.8263
6549 15.2953 68(8) 70.3698 67.8277
6550 15.2973 73(9) 70.4105 67.8292
6551 15.2993 65(8) 70.4883 67.8307
6552 15.3013 74(9) 70.5996 67.8321
6553 15.3033 73(9) 70.7407 67.8336
6554 15.3053 74(9) 70.9074 67.8350
6555 15.3073 68(8) 71.0958 67.8365
6556 15.3093 70(8) 71.3022 67.8380
6557 15.3113 70(8) 71.5236 67.8394
6558 15.3133 78(9) 71.7583 67.8409
6559 15.3153 75(9) 72.0065 67.8424
6560 15.3173 75(9) 72.2715 67.8438
6561 15.3193 66(8) 72.5598 67.8453
6562 15.3213 78(9) 72.8791 67.8468
6563 15.3233 84(9) 73.2463 67.8483
6564 15.3253 73(9) 73.6732 67.8498
6565 15.3273 78(9) 74.1733 67.8512
6566 15.3293 82(9) 74.7592 67.8527
6567 15.3313 78(9) 75.4404 67.8542
6568 15.3333 81(9) 76.2234 67.8557
6569 15.3353 78(9) 77.1105 67.8572
6570 15.3373 82(9) 78.0990 67.8587
6571 15.3393 80(9) 79.1803 67.8601
6572 15.3413 87(9) 80.3394 67.8616
6573 15.3433 86(9) 81.5549 67.8631
6574 15.3453 85(9) 82.7970 67.8646
6575 15.3473 82(9) 84.0324 67.8661
6576 15.3493 96(10) 85.2239 67.8676
6577 15.3513 87(9) 86.3344 67.8691
6578 15.3533 89(9) 87.3302 67.8706
6579 15.3553 89(9) 88.1826 67.8721
6580 15.3573 99(10) 88.8673 67.8736
6581 15.3593 93(10) 89.3615 67.8751
6582 15.3613 95(10) 89.6527 67.8766
6583 15.3633 86(9) 89.7209 67.8781
6584 15.3653 92(10) 89.5530 67.8796
6585 15.3673 84(9) 89.1446 67.8811
6586 15.3693 86(9) 88.5050 67.8826
6587 15.3713 88(9) 87.6603 67.8841
6588 15.3733 83(9) 86.6515 67.8856
6589 15.3753 90(9) 85.5296 67.8871
6590 15.3773 90(9) 84.3501 67.8886
6591 15.3793 90(9) 83.1669 67.8901
6592 15.3813 81(9) 82.0279 67.8916
6593 15.3833 94(10) 80.9740 67.8932
6594 15.3853 87(9) 80.0395 67.8947
6595 15.3873 76(9) 79.2494 67.8962
6596 15.3893 71(8) 78.6214 67.8977
6597 15.3913 80(9) 78.1658 67.8992
6598 15.3933 69(8) 77.8860 67.9007
6599 15.3953 86(9) 77.7789 67.9022
6600 15.3973 74(9) 77.8351 67.9038
6601 15.3993 77(9) 78.0398 67.9053
6602 15.4013 84(9) 78.3734 67.9068
6603 15.4033 79(9) 78.8094 67.9083
6604 15.4053 73(9) 79.3195 67.9099
6605 15.4073 79(9) 79.8706 67.9114
6606 15.4093 78(9) 80.4285 67.9129
6607 15.4113 80(9) 80.9584 67.9144
6608 15.4133 79(9) 81.4302 67.9160
6609 15.4153 82(9) 81.8298 67.9175
6610 15.4173 80(9) 82.1280 67.9190
6611 15.4193 83(9) 82.3301 67.9206
6612 15.4213 88(9) 82.4411 67.9221
6613 15.4233 83(9) 82.4626 67.9236
6614 15.4253 85(9) 82.4149 67.9252
6615 15.4273 82(9) 82.2938 67.9267
6616 15.4293 96(10) 82.0992 67.9282
6617 15.4313 89(9) 81.8261 67.9298
6618 15.4333 87(9) 81.4675 67.9313
6619 15.4353 83(9) 81.0184 67.9328
6620 15.4373 84(9) 80.4793 67.9344
6621 15.4393 87(9) 79.8581 67.9359
6622 15.4413 84(9) 79.1707 67.9375
6623 15.4433 80(9) 78.4388 67.9390
6624 15.4453 74(9) 77.6871 67.9405
6625 15.4473 85(9) 76.9397 67.9421
6626 15.4493 73(9) 76.2199 67.9436
6627 15.4513 76(9) 75.5466 67.9452
6628 15.4533 70(8) 74.9395 67.9467
6629 15.4553 77(9) 74.4035 67.9483
6630 15.4573 65(8) 73.9517 67.9498
6631 15.4593 65(8) 73.5901 67.9514
6632 15.4613 75(9) 73.3218 67.9529
6633 15.4633 68(8) 73.1469 67.9545
6634 15.4653 65(8) 73.0625 67.9560
6635 15.4673 71(8) 73.0631 67.9576
6636 15.4693 78(9) 73.1404 67.9591
6637 15.4713 75(9) 73.2838 67.9607
6638 15.4733 76(9) 73.4803 67.9622
6639 15.4753 71(8) 73.7038 67.9638
6640 15.4773 83(9) 73.9601 67.9653
6641 15.4793 74(9) 74.2242 67.9669
6642 15.4813 69(8) 74.4680 67.9684
6643 15.4833 78(9) 74.6775 67.9700
6644 15.4853 77(9) 74.8365 67.9715
6645 15.4873 77(9) 74.9331 67.9731
6646 15.4893 72(8) 74.9616 67.9747
6647 15.4913 74(9) 74.9238 67.9762
6648 15.4933 69(8) 74.8287 67.9778
6649 15.4953 76(9) 74.6913 67.9793
6650 15.4973 76(9) 74.5308 67.9809
6651 15.4993 76(9) 74.3687 67.9825
6652 15.5013 76(9) 74.2270 67.9840
6653 15.5033 72(8) 74.1276 67.9856
6654 15.5053 68(8) 74.0907 67.9871
6655 15.5073 72(9) 74.1349 67.9887
6656 15.5093 80(9) 74.2761 67.9903
6657 15.5113 70(8) 74.5274 67.9918
6658 15.5133 74(9) 74.8986 67.9934
6659 15.5153 78(9) 75.3954 67.9950
6660 15.5173 76(9) 76.0195 67.9965
6661 15.5193 72(8) 76.7675 67.9981
6662 15.5213 68(8) 77.6309 67.9997
6663 15.5233 81(9) 78.5958 68.0012
6664 15.5253 86(9) 79.6421 68.0028
6665 15.5273 78(9) 80.7439 68.0044
6666 15.5293 90(10) 81.8675 68.0059
6667 15.5313 80(9) 82.9746 68.0075
6668 15.5333 87(9) 84.0221 68.0091
6669 15.5353 87(9) 84.9652 68.0106
6670 15.5373 91(10) 85.7619 68.0122
6671 15.5393 90(9) 86.3780 68.0138
6672 15.5413 79(9) 86.7996 68.0153
6673 15.5433 88(9) 86.9971 68.0169
6674 15.5453 88(9) 86.9825 68.0185
6675 15.5473 94(10) 86.7629 68.0200
6676 15.5493 85(9) 86.3506 68.0216
6677 15.5513 85(9) 85.7613 68.0232
6678 15.5533 88(9) 85.0140 68.0248
6679 15.5553 74(9) 84.1345 68.0263
6680 15.5573 84(9) 83.1535 68.0279
6681 15.5593 82(9) 82.1069 68.0295
6682 15.5613 75(9) 81.0323 68.0310
6683 15.5633 72(8) 79.9655 68.0326
6684 15.5653 69(8) 78.9401 68.0342
6685 15.5673 71(8) 77.9769 68.0358
6686 15.5693 69(8) 77.1077 68.0373
6687 15.5713 77(9) 76.3414 68.0389
6688 15.5733 72(8) 75.6869 68.0405
6689 15.5753 70(8) 75.1474 68.0421
6690 15.5773 76(9) 74.7215 68.0436
6691 15.5793 75(9) 74.4031 68.0452
6692 15.5813 79(9) 74.1829 68.0468
6693 15.5833 69(8) 74.0477 68.0484
6694 15.5853 75(9) 73.9816 68.0499
6695 15.5873 78(9) 73.9664 68.0515
6696 15.5893 80(9) 73.9821 68.0531
6697 15.5913 80(9) 74.0099 68.0546
6698 15.5933 78(9) 74.0241 68.0562
6699 15.5953 71(8) 74.0080 68.0578
6700 15.5973 78(9) 73.9462 68.0594
6701 15.5993 78(9) 73.8291 68.0610
6702 15.6013 78(9) 73.6535 68.0625
6703 15.6033 75(9) 73.4226 68.0641
6704 15.6053 74(9) 73.1445 68.0657
6705 15.6073 72(9) 72.8301 68.0673
6706 15.6093 85(9) 72.4915 68.0688
6707 15.6113 71(8) 72.1430 68.0704
6708 15.6133 69(8) 71.7891 68.0720
6709 15.6153 68(8) 71.4435 68.0736
6710 15.6173 67(8) 71.1102 68.0751
6711 15.6193 77(9) 70.7963 68.0767
6712 15.6213 70(8) 70.5041 68.0783
6713 15.6233 68(8) 70.2408 68.0799
6714 15.6253 74(9) 70.0055 68.0814
6715 15.6273 67(8) 69.7985 68.0830
6716 15.6293 74(9) 69.6188 68.0846
6717 15.6313 67(8) 69.4651 68.0862
6718 15.6333 67(8) 69.3355 68.0877
6719 15.6353 72(9) 69.2274 68.0893
6720 15.6373 67(8) 69.1384 68.0909
6721 15.6393 72(9) 69.0699 68.0925
6722 15.6413 73(9) 69.0117 68.0940
6723 15.6433 68(8) 68.9657 68.0956
6724 15.6453 72(8) 68.9298 68.0972
6725 15.6473 74(9) 68.9025 68.0987
6726 15.6493 68(8) 68.8825 68.1003
6727 15.6513 69(8) 68.8687 68.1019
6728 15.6533 66(8) 68.8603 68.1035
6729 15.6553 74(9) 68.8537 68.1050
6730 15.6573 63(8) 68.8471 68.1066
6731 15.6593 65(8) 68.8526 68.1082
6732 15.6613 69(8) 68.8633 68.1098
6733 15.6633 69(8) 68.8795 68.1113
6734 15.6653 69(8) 68.8978 68.1129
6735 15.6673 72(8) 68.9216 68.1145
6736 15.6693 65(8) 68.9509 68.1160
6737 15.6713 68(8) 68.9861 68.1176
6738 15.6733 78(9) 69.0104 68.1192
6739 15.6753 78(9) 69.0602 68.1208
6740 15.6773 76(9) 69.1189 68.1223
6741 15.6793 73(9) 69.1880 68.1239
6742 15.6813 70(8) 69.2691 68.1255
6743 15.6833 62(8) 69.3642 68.1270
6744 15.6853 67(8) 69.4759 68.1286
6745 15.6873 70(8) 69.6067 68.1302
6746 15.6893 71(8) 69.7599 68.1317
6747 15.6913 62(8) 69.9389 68.1333
6748 15.6933 73(9) 70.1473 68.1349
6749 15.6953 72(8) 70.3887 68.1364
6750 15.6973 72(8) 70.6662 68.1380
6751 15.6993 71(8) 70.9821 68.1396
6752 15.7013 72(9) 71.3375 68.1411
6753 15.7033 73(9) 71.7320 68.1427
6754 15.7053 77(9) 72.1633 68.1442
6755 15.7073 69(8) 72.6270 68.1458
6756 15.7093 73(9) 73.1164 68.1474
6757 15.7113 72(8) 73.6229 68.1489
6758 15.7133 76(9) 74.1350 68.1505
6759 15.7153 76(9) 74.6399 68.1521
6760 15.7173 78(9) 75.1227 68.1536
6761 15.7193 78(9) 75.5668 68.1552
6762 15.7213 78(9) 75.9436 68.1567
6763 15.7233 79(9) 76.2575 68.1583
6764 15.7253 77(9) 76.4818 68.1599
6765 15.7273 74(9) 76.6054 68.1614
6766 15.7293 78(9) 76.6240 68.1630
6767 15.7313 80(9) 76.5414 68.1645
6768 15.7333 80(9) 76.3688 68.1661
6769 15.7353 75(9) 76.1231 68.1676
6770 15.7373 78(9) 75.8242 68.1692
6771 15.7393 80(9) 75.4932 68.1707
6772 15.7413 75(9) 75.1502 68.1723
6773 15.7433 79(9) 74.8032 68.1739
6774 15.7453 74(9) 74.4880 68.1754
6775 15.7473 80(9) 74.2066 68.1770
6776 15.7493 73(9) 73.9682 68.1785
6777 15.7513 80(9) 73.7781 68.1801
6778 15.7533 78(9) 73.6390 68.1816
6779 15.7553 75(9) 73.5494 68.1832
6780 15.7573 78(9) 73.5054 68.1847
6781 15.7593 79(9) 73.5003 68.1862
6782 15.7613 76(9) 73.5252 68.1878
6783 15.7633 78(9) 73.5703 68.1893
6784 15.7653 74(9) 73.6257 68.1909
6785 15.7673 67(8) 73.6828 68.1924
6786 15.7693 69(8) 73.7358 68.1940
6787 15.7713 76(9) 73.7814 68.1955
6788 15.7733 79(9) 73.8187 68.1970
6789 15.7753 70(8) 73.8483 68.1986
6790 15.7773 71(8) 73.8706 68.2001
6791 15.7793 79(9) 73.8867 68.2017
6792 15.7813 83(9) 73.8938 68.2032
6793 15.7833 75(9) 73.8854 68.2047
6794 15.7853 73(9) 73.8580 68.2063
6795 15.7873 69(8) 73.8049 68.2078
6796 15.7893 73(9) 73.7195 68.2093
6797 15.7913 70(8) 73.5968 68.2109
6798 15.7933 74(9) 73.4345 68.2124
6799 15.7953 68(8) 73.2287 68.2139
6800 15.7973 77(9) 72.9953 68.2155
6801 15.7993 73(9) 72.7369 68.2170
6802 15.8013 69(8) 72.4619 68.2185
6803 15.8033 71(8) 72.1832 68.2201
6804 15.8053 68(8) 71.9093 68.2216
6805 15.8073 68(8) 71.6500 68.2231
6806 15.8093 69(8) 71.4120 68.2246
6807 15.8113 80(9) 71.2032 68.2261
6808 15.8133 74(9) 71.0302 68.2277
6809 15.8153 75(9) 70.8986 68.2292
6810 15.8173 71(8) 70.8135 68.2307
6811 15.8193 73(9) 70.7791 68.2322
6812 15.8213 77(9) 70.7989 68.2337
6813 15.8233 70(8) 70.8757 68.2353
6814 15.8253 71(8) 71.0133 68.2368
6815 15.8273 71(8) 71.2082 68.2383
6816 15.8293 73(9) 71.4639 68.2398
6817 15.8313 77(9) 71.7743 68.2413
6818 15.8333 72(8) 72.1376 68.2428
6819 15.8353 72(8) 72.5479 68.2443
6820 15.8373 75(9) 72.9974 68.2458
6821 15.8393 73(9) 73.4759 68.2473
6822 15.8413 71(8) 73.9709 68.2489
6823 15.8433 75(9) 74.4673 68.2504
6824 15.8453 75(9) 74.9470 68.2519
6825 15.8473 67(8) 75.3904 68.2534
6826 15.8493 79(9) 75.7621 68.2549
6827 15.8513 75(9) 76.0685 68.2564
6828 15.8533 67(8) 76.2762 68.2579
6829 15.8553 76(9) 76.3710 68.2594
6830 15.8573 73(9) 76.3464 68.2609
6831 15.8593 71(8) 76.2051 68.2624
6832 15.8613 72(8) 75.9582 68.2638
6833 15.8633 70(8) 75.6143 68.2653
6834 15.8653 73(9) 75.2131 68.2668
6835 15.8673 70(8) 74.7677 68.2683
6836 15.8693 65(8) 74.2991 68.2698
6837 15.8713 69(8) 73.8271 68.2713
6838 15.8733 72(8) 73.3684 68.2728
6839 15.8753 71(8) 72.9369 68.2742
6840 15.8773 75(9) 72.5438 68.2757
6841 15.8793 75(9) 72.1979 68.2772
6842 15.8813 72(8) 71.9051 68.2787
6843 15.8833 74(9) 71.6694 68.2802
6844 15.8853 71(8) 71.4924 68.2817
6845 15.8873 74(9) 71.3738 68.2831
6846 15.8893 75(9) 71.3114 68.2846
6847 15.8913 75(9) 71.3019 68.2861
6848 15.8933 73(9) 71.3406 68.2875
6849 15.8953 71(8) 71.4221 68.2890
6850 15.8973 67(8) 71.5398 68.2905
6851 15.8993 68(8) 71.6868 68.2919
6852 15.9013 68(8) 71.8556 68.2934
6853 15.9033 73(9) 72.0409 68.2949
6854 15.9053 76(9) 72.2348 68.2963
6855 15.9073 77(9) 72.4277 68.2978
6856 15.9093 77(9) 72.6128 68.2993
6857 15.9113 75(9) 72.7991 68.3007
6858 15.9133 78(9) 72.9799 68.3022
6859 15.9153 74(9) 73.1546 68.3036
6860 15.9173 75(9) 73.3225 68.3051
6861 15.9193 77(9) 73.4820 68.3065
6862 15.9213 69(8) 73.6301 68.3080
6863 15.9233 71(8) 73.7627 68.3094
6864 15.9253 74(9) 73.8751 68.3109
6865 15.9273 79(9) 73.9625 68.3123
6866 15.9293 73(9) 74.0219 68.3138
6867 15.9313 71(8) 74.0520 68.3152
6868 15.9333 70(8) 74.0550 68.3166
6869 15.9353 79(9) 74.0354 68.3181
6870 15.9373 73(9) 73.9998 68.3195
6871 15.9393 76(9) 73.9555 68.3209
6872 15.9413 76(9) 73.9083 68.3224
6873 15.9433 72(8) 73.8636 68.3238
6874 15.9453 82(9) 73.8243 68.3252
6875 15.9473 68(8) 73.7912 68.3266
6876 15.9493 75(9) 73.7625 68.3281
6877 15.9513 79(9) 73.7353 68.3295
6878 15.9533 72(8) 73.7033 68.3309
6879 15.9553 66(8) 73.6620 68.3323
6880 15.9573 79(9) 73.6069 68.3337
6881 15.9593 73(9) 73.5354 68.3352
6882 15.9613 82(9) 73.4469 68.3366
6883 15.9633 67(8) 73.3432 68.3380
6884 15.9653 75(9) 73.2272 68.3394
6885 15.9673 67(8) 73.1018 68.3408
6886 15.9693 73(9) 72.9693 68.3422
6887 15.9713 71(8) 72.8309 68.3436
6888 15.9733 68(8) 72.6879 68.3450
6889 15.9753 73(9) 72.5356 68.3464
6890 15.9773 76(9) 72.3735 68.3478
6891 15.9793 76(9) 72.1993 68.3492
6892 15.9813 74(9) 72.0116 68.3506
6893 15.9833 73(9) 71.8105 68.3520
6894 15.9853 70(8) 71.5975 68.3534
6895 15.9873 76(9) 71.3756 68.3548
6896 15.9893 72(9) 71.1492 68.3562
6897 15.9913 76(9) 70.9225 68.3575
6898 15.9933 71(8) 70.6996 68.3589
6899 15.9953 69(8) 70.4841 68.3603
6900 15.9973 69(8) 70.2791 68.3617
6901 15.9993 73(9) 70.0867 68.3630
6902 16.0013 68(8) 69.9085 68.3644
6903 16.0033 78(9) 69.7453 68.3658
6904 16.0053 72(8) 69.5983 68.3672
6905 16.0073 74(9) 69.4671 68.3685
6906 16.0093 75(9) 69.3515 68.3699
6907 16.0113 75(9) 69.2507 68.3713
6908 16.0133 64(8) 69.1639 68.3726
6909 16.0153 65(8) 69.0900 68.3740
6910 16.0173 72(8) 69.0278 68.3753
6911 16.0193 71(8) 68.9761 68.3767
6912 16.0213 58(8) 68.9336 68.3780
6913 16.0233 70(8) 68.8991 68.3794
6914 16.0253 70(8) 68.8715 68.3807
6915 16.0273 68(8) 68.8491 68.3821
6916 16.0293 65(8) 68.8334 68.3834
6917 16.0313 61(8) 68.8212 68.3848
6918 16.0333 72(8) 68.8129 68.3861
6919 16.0353 68(8) 68.8080 68.3874
6920 16.0373 66(8) 68.8063 68.3888
6921 16.0393 68(8) 68.8075 68.3901
6922 16.0413 64(8) 68.8033 68.3914
6923 16.0433 67(8) 68.8105 68.3928
6924 16.0453 68(8) 68.8208 68.3941
6925 16.0473 76(9) 68.8346 68.3954
6926 16.0493 73(9) 68.8521 68.3967
6927 16.0513 68(8) 68.8730 68.3980
6928 16.0533 71(8) 68.8998 68.3994
6929 16.0553 63(8) 68.9322 68.4007
6930 16.0573 66(8) 68.9710 68.4020
6931 16.0593 71(8) 69.0326 68.4033
6932 16.0613 64(8) 69.0874 68.4046
6933 16.0633 60(8) 69.1516 68.4059
6934 16.0653 68(8) 69.2264 68.4072
6935 16.0673 68(8) 69.3126 68.4085
6936 16.0693 65(8) 69.4112 68.4098
6937 16.0713 71(8) 69.5229 68.4111
6938 16.0733 69(8) 69.6483 68.4124
6939 16.0753 78(9) 69.7873 68.4137
6940 16.0773 77(9) 69.9402 68.4149
6941 16.0793 64(8) 70.1060 68.4162
6942 16.0813 67(8) 70.2796 68.4175
6943 16.0833 75(9) 70.4670 68.4188
6944 16.0853 80(9) 70.6611 68.4200
6945 16.0873 75(9) 70.8585 68.4213
6946 16.0893 69(8) 71.0550 68.4226
6947 16.0913 70(8) 71.2441 68.4239
6948 16.0933 70(8) 71.4199 68.4251
6949 16.0953 75(9) 71.5758 68.4264
6950 16.0973 71(8) 71.7055 68.4276
6951 16.0993 68(8) 71.8035 68.4289
6952 16.1013 67(8) 71.8668 68.4301
6953 16.1033 72(9) 71.8947 68.4314
6954 16.1053 68(8) 71.8903 68.4326
6955 16.1073 73(9) 71.8543 68.4339
6956 16.1093 76(9) 71.8036 68.4351
6957 16.1113 66(8) 71.7418 68.4364
6958 16.1133 72(8) 71.6774 68.4376
6959 16.1153 83(9) 71.6181 68.4388
6960 16.1173 71(8) 71.5710 68.4401
6961 16.1193 69(8) 71.5404 68.4413
6962 16.1213 74(9) 71.5304 68.4425
6963 16.1233 69(8) 71.5434 68.4437
6964 16.1253 78(9) 71.5802 68.4450
6965 16.1273 75(9) 71.6401 68.4462
6966 16.1293 71(8) 71.7217 68.4474
6967 16.1313 74(9) 71.8217 68.4486
6968 16.1333 69(8) 71.9366 68.4498
6969 16.1353 66(8) 72.0619 68.4510
6970 16.1373 71(8) 72.1920 68.4522
6971 16.1393 63(8) 72.3205 68.4534
6972 16.1413 63(8) 72.4402 68.4546
6973 16.1433 76(9) 72.5437 68.4558
6974 16.1453 67(8) 72.6239 68.4570
6975 16.1473 71(8) 72.6748 68.4582
6976 16.1493 66(8) 72.6930 68.4594
6977 16.1513 79(9) 72.6773 68.4606
6978 16.1533 74(9) 72.6293 68.4618
6979 16.1553 66(8) 72.5533 68.4629
6980 16.1573 72(9) 72.4545 68.4641
6981 16.1593 79(9) 72.3391 68.4653
6982 16.1613 77(9) 72.2129 68.4664
6983 16.1633 74(9) 72.0808 68.4676
6984 16.1653 76(9) 71.9468 68.4688
6985 16.1673 73(9) 71.8135 68.4699
6986 16.1693 71(8) 71.6827 68.4711
6987 16.1713 76(9) 71.5556 68.4722
6988 16.1733 75(9) 71.4234 68.4734
6989 16.1753 66(8) 71.3066 68.4745
6990 16.1773 69(8) 71.1997 68.4757
6991 16.1793 74(9) 71.0976 68.4768
6992 16.1813 71(8) 71.0009 68.4779
6993 16.1833 72(8) 70.9129 68.4791
6994 16.1853 72(9) 70.8346 68.4802
6995 16.1873 71(8) 70.7677 68.4813
6996 16.1893 74(9) 70.7143 68.4824
6997 16.1913 67(8) 70.6771 68.4836
6998 16.1933 76(9) 70.6590 68.4847
6999 16.1953 68(8) 70.6628 68.4858
7000 16.1973 69(8) 70.6915 68.4869
7001 16.1993 76(9) 70.7469 68.4880
7002 16.2013 72(8) 70.8306 68.4891
7003 16.2033 69(8) 70.9428 68.4902
7004 16.2053 69(8) 71.0828 68.4913
7005 16.2073 75(9) 71.2486 68.4924
7006 16.2093 74(9) 71.4371 68.4935
7007 16.2113 69(8) 71.6436 68.4946
7008 16.2133 73(9) 71.8620 68.4957
7009 16.2153 71(8) 72.0851 68.4968
7010 16.2173 77(9) 72.3040 68.4978
7011 16.2193 66(8) 72.5092 68.4989
7012 16.2213 71(8) 72.6897 68.5000
7013 16.2233 74(9) 72.8353 68.5010
7014 16.2253 81(9) 72.9341 68.5021
7015 16.2273 78(9) 72.9837 68.5032
7016 16.2293 74(9) 72.9778 68.5042
7017 16.2313 69(8) 72.9167 68.5053
7018 16.2333 68(8) 72.8048 68.5063
7019 16.2353 75(9) 72.6497 68.5074
7020 16.2373 76(9) 72.4605 68.5084
7021 16.2393 70(8) 72.2478 68.5095
7022 16.2413 76(9) 72.0218 68.5105
7023 16.2433 78(9) 71.7914 68.5115
7024 16.2453 70(8) 71.5650 68.5126
7025 16.2473 72(8) 71.3458 68.5136
7026 16.2493 78(9) 71.1454 68.5146
7027 16.2513 70(8) 70.9628 68.5156
7028 16.2533 74(9) 70.8038 68.5166
7029 16.2553 67(8) 70.6683 68.5176
7030 16.2573 66(8) 70.5562 68.5186
7031 16.2593 77(9) 70.4668 68.5196
7032 16.2613 74(9) 70.3985 68.5207
7033 16.2633 73(9) 70.3494 68.5216
7034 16.2653 78(9) 70.3172 68.5226
7035 16.2673 75(9) 70.2994 68.5236
7036 16.2693 81(9) 70.2937 68.5246
7037 16.2713 78(9) 70.2981 68.5256
7038 16.2733 67(8) 70.3102 68.5266
7039 16.2753 73(9) 70.3284 68.5275
7040 16.2773 74(9) 70.3475 68.5285
7041 16.2793 76(9) 70.3739 68.5295
7042 16.2813 74(9) 70.4028 68.5304
7043 16.2833 70(8) 70.4333 68.5314
7044 16.2853 70(8) 70.4644 68.5323
7045 16.2873 74(9) 70.4945 68.5333
7046 16.2893 65(8) 70.5219 68.5343
7047 16.2913 70(8) 70.5443 68.5352
7048 16.2933 71(8) 70.5590 68.5361
7049 16.2953 72(8) 70.5634 68.5371
7050 16.2973 74(9) 70.5552 68.5380
7051 16.2993 77(9) 70.5460 68.5389
7052 16.3013 74(9) 70.5069 68.5399
7053 16.3033 82(9) 70.4556 68.5408
7054 16.3053 67(8) 70.3921 68.5417
7055 16.3073 64(8) 70.3195 68.5426
7056 16.3093 66(8) 70.2408 68.5435
7057 16.3113 76(9) 70.1595 68.5444
7058 16.3133 75(9) 70.0789 68.5453
7059 16.3153 60(8) 70.0019 68.5462
7060 16.3173 77(9) 69.9312 68.5471
7061 16.3193 77(9) 69.8694 68.5480
7062 16.3213 75(9) 69.8180 68.5489
7063 16.3233 66(8) 69.7832 68.5498
7064 16.3253 70(8) 69.7581 68.5506
7065 16.3273 71(8) 69.7483 68.5515
7066 16.3293 73(9) 69.7550 68.5524
7067 16.3313 60(8) 69.7796 68.5532
7068 16.3333 66(8) 69.8233 68.5541
7069 16.3353 66(8) 69.8875 68.5549
7070 16.3373 71(8) 69.9741 68.5558
7071 16.3393 76(9) 70.0849 68.5566
7072 16.3413 73(9) 70.2238 68.5575
7073 16.3433 75(9) 70.3907 68.5583
7074 16.3453 70(8) 70.5955 68.5592
7075 16.3473 76(9) 70.8306 68.5600
7076 16.3493 71(8) 71.1046 68.5608
7077 16.3513 70(8) 71.4216 68.5616
7078 16.3533 71(8) 71.7845 68.5625
7079 16.3553 70(8) 72.1969 68.5633
7080 16.3573 74(9) 72.6613 68.5641
7081 16.3593 76(9) 73.1847 68.5649
7082 16.3613 66(8) 73.7574 68.5657
7083 16.3633 79(9) 74.3829 68.5665
7084 16.3653 74(9) 75.0589 68.5673
7085 16.3673 72(8) 75.7776 68.5681
7086 16.3693 79(9) 76.5307 68.5688
7087 16.3713 72(8) 77.3038 68.5696
7088 16.3733 72(8) 78.0804 68.5704
7089 16.3753 79(9) 78.8375 68.5712
7090 16.3773 73(9) 79.5498 68.5719
7091 16.3793 70(8) 80.1901 68.5727
7092 16.3813 81(9) 80.7301 68.5734
7093 16.3833 74(9) 81.1350 68.5742
7094 16.3853 79(9) 81.3831 68.5750
7095 16.3873 70(8) 81.4571 68.5757
7096 16.3893 77(9) 81.3517 68.5764
7097 16.3913 73(9) 81.0759 68.5772
7098 16.3933 84(9) 80.6432 68.5779
7099 16.3953 76(9) 80.0815 68.5786
7100 16.3973 79(9) 79.4216 68.5794
7101 16.3993 73(9) 78.6922 68.5801
7102 16.4013 73(9) 77.9233 68.5808
7103 16.4033 69(8) 77.1386 68.5815
7104 16.4053 75(9) 76.3611 68.5822
7105 16.4073 64(8) 75.6067 68.5829
7106 16.4093 73(9) 74.8901 68.5836
7107 16.4113 73(9) 74.2217 68.5843
7108 16.4133 76(9) 73.6071 68.5850
7109 16.4153 75(9) 73.0511 68.5856
7110 16.4173 68(8) 72.5539 68.5863
7111 16.4193 81(9) 72.1158 68.5870
7112 16.4213 75(9) 71.7337 68.5876
7113 16.4233 67(8) 71.4034 68.5883
7114 16.4253 71(8) 71.1220 68.5890
7115 16.4273 73(9) 70.8871 68.5896
7116 16.4293 75(9) 70.6924 68.5903
7117 16.4313 71(8) 70.5326 68.5909
7118 16.4333 73(9) 70.4031 68.5915
7119 16.4353 65(8) 70.2990 68.5922
7120 16.4373 75(9) 70.2161 68.5928
7121 16.4393 78(9) 70.1504 68.5934
7122 16.4413 69(8) 70.0980 68.5940
7123 16.4433 78(9) 70.0558 68.5947
7124 16.4453 77(9) 70.0212 68.5953
7125 16.4473 69(8) 69.9921 68.5959
7126 16.4493 67(8) 69.9673 68.5965
7127 16.4513 68(8) 69.9461 68.5971
7128 16.4533 60(8) 69.9280 68.5976
7129 16.4553 61(8) 69.9148 68.5982
7130 16.4573 66(8) 69.9133 68.5988
7131 16.4593 63(8) 69.9128 68.5994
7132 16.4613 80(9) 69.9214 68.6000
7133 16.4633 71(8) 69.9418 68.6005
7134 16.4653 70(8) 69.9767 68.6011
7135 16.4673 70(8) 70.0291 68.6016
7136 16.4693 66(8) 70.1000 68.6022
7137 16.4713 78(9) 70.1966 68.6027
7138 16.4733 69(8) 70.3195 68.6033
7139 16.4753 69(8) 70.4692 68.6038
7140 16.4773 65(8) 70.6511 68.6043
7141 16.4793 75(9) 70.8672 68.6049
7142 16.4813 73(9) 71.1120 68.6054
7143 16.4833 72(8) 71.3873 68.6059
7144 16.4853 66(8) 71.6903 68.6064
7145 16.4873 70(8) 72.0178 68.6069
7146 16.4893 76(9) 72.3641 68.6074
7147 16.4913 78(9) 72.7218 68.6079
7148 16.4933 76(9) 73.0832 68.6084
7149 16.4953 76(9) 73.4370 68.6089
7150 16.4973 80(9) 73.7710 68.6094
7151 16.4993 74(9) 74.0757 68.6098
7152 16.5013 75(9) 74.3320 68.6103
7153 16.5033 80(9) 74.5289 68.6108
7154 16.5053 80(9) 74.6574 68.6112
7155 16.5073 90(9) 74.7042 68.6117
7156 16.5093 81(9) 74.6688 68.6121
7157 16.5113 76(9) 74.5527 68.6126
7158 16.5133 68(8) 74.3648 68.6130
7159 16.5153 69(8) 74.1154 68.6134
7160 16.5173 72(8) 73.8172 68.6139
7161 16.5193 78(9) 73.4844 68.6143
7162 16.5213 73(9) 73.1295 68.6147
7163 16.5233 76(9) 72.7654 68.6151
7164 16.5253 67(8) 72.4015 68.6155
7165 16.5273 76(9) 72.0550 68.6159
7166 16.5293 70(8) 71.7175 68.6163
7167 16.5313 72(9) 71.4014 68.6167
7168 16.5333 74(9) 71.1118 68.6171
7169 16.5353 69(8) 70.8496 68.6174
7170 16.5373 68(8) 70.6170 68.6178
7171 16.5393 78(9) 70.4136 68.6182
7172 16.5413 69(8) 70.2387 68.6185
7173 16.5433 71(8) 70.0910 68.6189
7174 16.5453 77(9) 69.9683 68.6192
7175 16.5473 74(9) 69.8678 68.6196
7176 16.5493 68(8) 69.7872 68.6199
7177 16.5513 70(8) 69.7217 68.6203
7178 16.5533 62(8) 69.6728 68.6206
7179 16.5553 73(9) 69.6332 68.6209
7180 16.5573 67(8) 69.6069 68.6212
7181 16.5593 73(9) 69.5892 68.6215
7182 16.5613 69(8) 69.5788 68.6218
7183 16.5633 72(8) 69.5748 68.6221
7184 16.5653 73(9) 69.5769 68.6224
7185 16.5673 75(9) 69.5849 68.6227
7186 16.5693 80(9) 69.5989 68.6230
7187 16.5713 70(8) 69.6197 68.6233
7188 16.5733 72(9) 69.6480 68.6236
7189 16.5753 70(8) 69.6850 68.6238
7190 16.5773 76(9) 69.7325 68.6241
7191 16.5793 71(8) 69.7923 68.6243
7192 16.5813 65(8) 69.8669 68.6246
7193 16.5833 65(8) 69.9592 68.6248
7194 16.5853 70(8) 70.0726 68.6251
7195 16.5873 70(8) 70.2110 68.6253
7196 16.5893 75(9) 70.3785 68.6255
7197 16.5913 78(9) 70.5796 68.6257
7198 16.5933 77(9) 70.8198 68.6260
7199 16.5953 74(9) 71.1032 68.6262
7200 16.5973 75(9) 71.4352 68.6264
7201 16.5993 74(9) 71.8194 68.6266
7202 16.6013 71(8) 72.2593 68.6268
7203 16.6033 69(8) 72.7652 68.6269
7204 16.6053 77(9) 73.3240 68.6271
7205 16.6073 76(9) 73.9419 68.6273
7206 16.6093 72(8) 74.6156 68.6275
7207 16.6113 74(9) 75.3414 68.6276
7208 16.6133 77(9) 76.1103 68.6278
7209 16.6153 80(9) 76.9134 68.6279
7210 16.6173 81(9) 77.7355 68.6281
7211 16.6193 80(9) 78.5689 68.6282
7212 16.6213 85(9) 79.3783 68.6283
7213 16.6233 82(9) 80.1477 68.6284
7214 16.6253 89(9) 80.8541 68.6286
7215 16.6273 92(10) 81.4700 68.6287
7216 16.6293 89(9) 81.9782 68.6288
7217 16.6313 87(9) 82.3603 68.6289
7218 16.6333 88(9) 82.6089 68.6290
7219 16.6353 93(10) 82.7288 68.6291
7220 16.6373 89(9) 82.7288 68.6292
7221 16.6393 88(9) 82.6299 68.6292
7222 16.6413 94(10) 82.4558 68.6293
7223 16.6433 86(9) 82.2299 68.6294
7224 16.6453 86(9) 81.9746 68.6294
7225 16.6473 79(9) 81.7090 68.6295
7226 16.6493 75(9) 81.4474 68.6295
7227 16.6513 80(9) 81.2013 68.6296
7228 16.6533 78(9) 80.9782 68.6296
7229 16.6553 84(9) 80.7841 68.6296
7230 16.6573 78(9) 80.6232 68.6296
7231 16.6593 82(9) 80.5018 68.6296
7232 16.6613 79(9) 80.4176 68.6297
7233 16.6633 75(9) 80.3749 68.6297
7234 16.6653 82(9) 80.3730 68.6296
7235 16.6673 84(9) 80.4087 68.6296
7236 16.6693 81(9) 80.4754 68.6296
7237 16.6713 76(9) 80.5636 68.6296
7238 16.6733 75(9) 80.6615 68.6296
7239 16.6753 88(9) 80.7564 68.6295
7240 16.6773 87(9) 80.8358 68.6295
7241 16.6793 86(9) 80.8896 68.6294
7242 16.6813 77(9) 80.9103 68.6294
7243 16.6833 75(9) 80.8934 68.6293
7244 16.6853 87(9) 80.8358 68.6292
7245 16.6873 84(9) 80.7381 68.6292
7246 16.6893 76(9) 80.5993 68.6291
7247 16.6913 76(9) 80.4194 68.6290
7248 16.6933 80(9) 80.2003 68.6289
7249 16.6953 78(9) 79.9444 68.6288
7250 16.6973 79(9) 79.6568 68.6287
7251 16.6993 83(9) 79.3442 68.6286
7252 16.7013 78(9) 79.0138 68.6284
7253 16.7033 74(9) 78.6708 68.6283
7254 16.7053 82(9) 78.3204 68.6282
7255 16.7073 77(9) 77.9664 68.6280
7256 16.7093 83(9) 77.6096 68.6279
7257 16.7113 80(9) 77.2504 68.6277
7258 16.7133 71(8) 76.8887 68.6276
7259 16.7153 76(9) 76.5233 68.6274
7260 16.7173 82(9) 76.1391 68.6272
7261 16.7193 74(9) 75.7665 68.6271
7262 16.7213 72(8) 75.3926 68.6269
7263 16.7233 65(8) 75.0152 68.6267
7264 16.7253 75(9) 74.6375 68.6265
7265 16.7273 71(8) 74.2732 68.6263
7266 16.7293 65(8) 73.9007 68.6260
7267 16.7313 74(9) 73.5354 68.6258
7268 16.7333 66(8) 73.1799 68.6256
7269 16.7353 72(8) 72.8389 68.6254
7270 16.7373 66(8) 72.5157 68.6251
7271 16.7393 71(8) 72.2142 68.6249
7272 16.7413 75(9) 71.9380 68.6246
7273 16.7433 71(8) 71.6896 68.6243
7274 16.7453 68(8) 71.4716 68.6241
7275 16.7473 73(9) 71.2853 68.6238
7276 16.7493 68(8) 71.1336 68.6235
7277 16.7513 66(8) 71.0175 68.6232
7278 16.7533 74(9) 70.9381 68.6229
7279 16.7553 65(8) 70.8965 68.6226
7280 16.7573 67(8) 70.8935 68.6223
7281 16.7593 74(9) 70.9300 68.6220
7282 16.7613 71(8) 71.0060 68.6217
7283 16.7633 78(9) 71.1217 68.6213
7284 16.7653 68(8) 71.2765 68.6210
7285 16.7673 72(8) 71.4699 68.6206
7286 16.7693 76(9) 71.6997 68.6203
7287 16.7713 72(8) 71.9642 68.6199
7288 16.7733 70(8) 72.2595 68.6195
7289 16.7753 67(8) 72.5821 68.6192
7290 16.7773 75(9) 72.9259 68.6188
7291 16.7793 78(9) 73.2859 68.6184
7292 16.7813 71(8) 73.6532 68.6180
7293 16.7833 68(8) 74.0191 68.6176
7294 16.7853 75(9) 74.3742 68.6172
7295 16.7873 83(9) 74.7074 68.6168
7296 16.7893 70(8) 75.0084 68.6163
7297 16.7913 73(9) 75.2677 68.6159
7298 16.7933 78(9) 75.4777 68.6155
7299 16.7953 75(9) 75.6352 68.6150
7300 16.7973 73(9) 75.7415 68.6146
7301 16.7993 77(9) 75.7994 68.6141
7302 16.8013 70(8) 75.8174 68.6136
7303 16.8033 73(9) 75.8051 68.6131
7304 16.8053 76(9) 75.7722 68.6127
7305 16.8073 81(9) 75.7276 68.6122
7306 16.8093 74(9) 75.6799 68.6117
7307 16.8113 76(9) 75.6343 68.6112
7308 16.8133 73(9) 75.5940 68.6106
7309 16.8153 75(9) 75.5636 68.6101
7310 16.8173 68(8) 75.5462 68.6096
7311 16.8193 79(9) 75.5447 68.6091
7312 16.8213 70(8) 75.5621 68.6085
7313 16.8233 73(9) 75.6014 68.6080
7314 16.8253 77(9) 75.6647 68.6074
7315 16.8273 75(9) 75.7534 68.6068
7316 16.8293 80(9) 75.8671 68.6063
7317 16.8313 82(9) 76.0035 68.6057
7318 16.8333 80(9) 76.1594 68.6051
7319 16.8353 72(9) 76.3296 68.6045
7320 16.8373 80(9) 76.5086 68.6039
7321 16.8393 84(9) 76.6873 68.6033
7322 16.8413 80(9) 76.8673 68.6027
7323 16.8433 73(9) 77.0449 68.6021
7324 16.8453 80(9) 77.2149 68.6014
7325 16.8473 76(9) 77.3789 68.6008
7326 16.8493 82(9) 77.5283 68.6001
7327 16.8513 87(9) 77.6639 68.5994
7328 16.8533 82(9) 77.7817 68.5988
7329 16.8553 80(9) 77.8770 68.5981
7330 16.8573 81(9) 77.9391 68.5974
7331 16.8593 75(9) 77.9595 68.5967
7332 16.8613 79(9) 77.9279 68.5961
7333 16.8633 74(9) 77.8349 68.5954
7334 16.8653 71(8) 77.6734 68.5946
7335 16.8673 80(9) 77.4410 68.5939
7336 16.8693 83(9) 77.1396 68.5932
7337 16.8713 79(9) 76.7765 68.5925
7338 16.8733 76(9) 76.3627 68.5917
7339 16.8753 73(9) 75.9104 68.5910
7340 16.8773 75(9) 75.4337 68.5902
7341 16.8793 66(8) 74.9449 68.5894
7342 16.8813 69(8) 74.4562 68.5887
7343 16.8833 70(8) 73.9784 68.5879
7344 16.8853 66(8) 73.5195 68.5871
7345 16.8873 69(8) 73.0878 68.5863
7346 16.8893 67(8) 72.6886 68.5855
7347 16.8913 66(8) 72.3275 68.5847
7348 16.8933 62(8) 72.0080 68.5839
7349 16.8953 70(8) 71.7331 68.5830
7350 16.8973 70(8) 71.5054 68.5822
7351 16.8993 68(8) 71.3259 68.5813
7352 16.9013 73(9) 71.1960 68.5805
7353 16.9033 75(9) 71.1166 68.5796
7354 16.9053 75(9) 71.0883 68.5787
7355 16.9073 64(8) 71.1120 68.5779
7356 16.9093 70(8) 71.1883 68.5770
7357 16.9113 70(8) 71.3178 68.5761
7358 16.9133 70(8) 71.5014 68.5752
7359 16.9153 73(9) 71.7394 68.5743
7360 16.9173 68(8) 72.0323 68.5733
7361 16.9193 64(8) 72.3794 68.5724
7362 16.9213 69(8) 72.7802 68.5715
7363 16.9233 73(9) 73.2324 68.5705
7364 16.9253 85(9) 73.7323 68.5696
7365 16.9273 68(8) 74.2762 68.5686
7366 16.9293 77(9) 74.8567 68.5677
7367 16.9313 74(9) 75.4664 68.5667
7368 16.9333 78(9) 76.0942 68.5657
7369 16.9353 76(9) 76.7270 68.5647
7370 16.9373 75(9) 77.3558 68.5637
7371 16.9393 80(9) 77.9542 68.5627
7372 16.9413 83(9) 78.5116 68.5617
7373 16.9433 78(9) 79.0119 68.5606
7374 16.9453 81(9) 79.4428 68.5596
7375 16.9473 83(9) 79.7944 68.5586
7376 16.9493 78(9) 80.0612 68.5575
7377 16.9513 80(9) 80.2386 68.5564
7378 16.9533 82(9) 80.3267 68.5554
7379 16.9553 79(9) 80.3237 68.5543
7380 16.9573 85(9) 80.2317 68.5532
7381 16.9593 85(9) 80.0536 68.5521
7382 16.9613 85(9) 79.7951 68.5510
7383 16.9633 75(9) 79.4653 68.5499
7384 16.9653 76(9) 79.0753 68.5488
7385 16.9673 83(9) 78.6257 68.5477
7386 16.9693 76(9) 78.1583 68.5465
7387 16.9713 72(8) 77.6735 68.5454
7388 16.9733 83(9) 77.1831 68.5442
7389 16.9753 75(9) 76.6983 68.5431
7390 16.9773 72(8) 76.2284 68.5419
7391 16.9793 69(8) 75.7798 68.5407
7392 16.9813 73(9) 75.3593 68.5395
7393 16.9833 77(9) 74.9728 68.5383
7394 16.9853 77(9) 74.6182 68.5371
7395 16.9873 73(9) 74.2976 68.5359
7396 16.9893 81(9) 74.0111 68.5347
7397 16.9913 75(9) 73.7512 68.5334
7398 16.9933 76(9) 73.5217 68.5322
7399 16.9953 72(8) 73.3136 68.5309
7400 16.9973 70(8) 73.1208 68.5297
7401 16.9993 71(8) 72.9384 68.5284
7402 17.0013 70(8) 72.7624 68.5271
7403 17.0033 78(9) 72.5899 68.5258
7404 17.0053 70(8) 72.4206 68.5246
7405 17.0073 78(9) 72.2550 68.5233
7406 17.0093 75(9) 72.0953 68.5219
7407 17.0113 74(9) 71.9428 68.5206
7408 17.0133 67(8) 71.8036 68.5193
7409 17.0153 72(8) 71.6743 68.5180
7410 17.0173 77(9) 71.5695 68.5166
7411 17.0193 75(9) 71.4873 68.5152
7412 17.0213 78(9) 71.4315 68.5139
7413 17.0233 75(9) 71.4057 68.5125
7414 17.0253 71(8) 71.4137 68.5111
7415 17.0273 80(9) 71.4593 68.5097
7416 17.0293 69(8) 71.5398 68.5083
7417 17.0313 78(9) 71.6701 68.5069
7418 17.0333 72(8) 71.8465 68.5055
7419 17.0353 74(9) 72.0713 68.5041
7420 17.0373 75(9) 72.3451 68.5026
7421 17.0393 77(9) 72.6686 68.5012
7422 17.0413 72(8) 73.0406 68.4997
7423 17.0433 76(9) 73.4589 68.4983
7424 17.0453 69(8) 73.9195 68.4968
7425 17.0473 74(9) 74.4202 68.4953
7426 17.0493 80(9) 74.9546 68.4938
7427 17.0513 80(9) 75.5142 68.4923
7428 17.0533 68(8) 76.0880 68.4908
7429 17.0553 79(9) 76.6686 68.4893
7430 17.0573 82(9) 77.2388 68.4877
7431 17.0593 82(9) 77.7832 68.4862
7432 17.0613 83(9) 78.2821 68.4847
7433 17.0633 80(9) 78.7164 68.4831
7434 17.0653 74(9) 79.0634 68.4815
7435 17.0673 74(9) 79.3081 68.4800
7436 17.0693 76(9) 79.4337 68.4784
7437 17.0713 81(9) 79.4305 68.4768
7438 17.0733 76(9) 79.2966 68.4752
7439 17.0753 72(8) 79.0380 68.4736
7440 17.0773 80(9) 78.6673 68.4719
7441 17.0793 80(9) 78.2030 68.4703
7442 17.0813 80(9) 77.6666 68.4687
7443 17.0833 76(9) 77.0790 68.4670
7444 17.0853 70(8) 76.4619 68.4653
7445 17.0873 81(9) 75.8330 68.4637
7446 17.0893 72(9) 75.2100 68.4620
7447 17.0913 78(9) 74.6054 68.4603
7448 17.0933 69(8) 74.0310 68.4586
7449 17.0953 75(9) 73.4962 68.4569
7450 17.0973 75(9) 73.0067 68.4552
7451 17.0993 73(9) 72.5666 68.4534
7452 17.1013 77(9) 72.1780 68.4517
7453 17.1033 72(8) 71.8423 68.4500
7454 17.1053 72(8) 71.5580 68.4482
7455 17.1073 78(9) 71.3237 68.4464
7456 17.1093 73(9) 71.1368 68.4447
7457 17.1113 64(8) 70.9936 68.4429
7458 17.1133 73(9) 70.8904 68.4411
7459 17.1153 74(9) 70.8228 68.4393
7460 17.1173 76(9) 70.7867 68.4374
7461 17.1193 65(8) 70.7778 68.4356
7462 17.1213 67(8) 70.7923 68.4338
7463 17.1233 70(8) 70.8254 68.4319
7464 17.1253 74(9) 70.8744 68.4301
7465 17.1273 67(8) 70.9358 68.4282
7466 17.1293 71(8) 71.0071 68.4264
7467 17.1313 69(8) 71.0855 68.4245
7468 17.1333 75(9) 71.1622 68.4226
7469 17.1353 72(8) 71.2471 68.4207
7470 17.1373 67(8) 71.3310 68.4188
7471 17.1393 78(9) 71.4114 68.4168
7472 17.1413 72(8) 71.4855 68.4149
7473 17.1433 71(8) 71.5555 68.4130
7474 17.1453 67(8) 71.6109 68.4110
7475 17.1473 82(9) 71.6546 68.4090
7476 17.1493 72(8) 71.6858 68.4071
7477 17.1513 65(8) 71.7040 68.4051
7478 17.1533 75(9) 71.7095 68.4031
7479 17.1553 75(9) 71.7035 68.4011
7480 17.1573 78(9) 71.6857 68.3991
7481 17.1593 60(8) 71.6645 68.3971
7482 17.1613 70(8) 71.6414 68.3950
7483 17.1633 77(9) 71.6212 68.3930
7484 17.1653 80(9) 71.6083 68.3909
7485 17.1673 79(9) 71.6070 68.3888
7486 17.1693 66(8) 71.6206 68.3868
7487 17.1713 72(8) 71.6514 68.3847
7488 17.1733 67(8) 71.7007 68.3826
7489 17.1753 74(9) 71.7681 68.3805
7490 17.1773 67(8) 71.8504 68.3784
7491 17.1793 66(8) 71.9488 68.3763
7492 17.1813 77(9) 72.0574 68.3741
7493 17.1833 69(8) 72.1678 68.3720
7494 17.1853 69(8) 72.2795 68.3698
7495 17.1873 73(9) 72.3860 68.3677
7496 17.1893 71(8) 72.4724 68.3655
7497 17.1913 74(9) 72.5350 68.3633
7498 17.1933 69(8) 72.5669 68.3611
7499 17.1953 82(9) 72.5634 68.3589
7500 17.1973 70(8) 72.5217 68.3567
7501 17.1993 77(9) 72.4413 68.3544
7502 17.2013 73(9) 72.3240 68.3522
7503 17.2033 78(9) 72.1793 68.3499
7504 17.2053 77(9) 71.9948 68.3477
7505 17.2073 72(8) 71.7947 68.3454
7506 17.2093 69(8) 71.5789 68.3431
7507 17.2113 70(8) 71.3533 68.3408
7508 17.2133 68(8) 71.1249 68.3385
7509 17.2153 72(8) 70.8981 68.3362
7510 17.2173 68(8) 70.6780 68.3339
7511 17.2193 71(8) 70.4679 68.3316
7512 17.2213 67(8) 70.2714 68.3292
7513 17.2233 78(9) 70.0904 68.3269
7514 17.2253 65(8) 69.9267 68.3245
7515 17.2273 66(8) 69.7821 68.3221
7516 17.2293 66(8) 69.6569 68.3197
7517 17.2313 64(8) 69.5516 68.3173
7518 17.2333 63(8) 69.4663 68.3149
7519 17.2353 72(8) 69.4013 68.3125
7520 17.2373 72(9) 69.3563 68.3101
7521 17.2393 71(8) 69.3315 68.3076
7522 17.2413 72(8) 69.3270 68.3052
7523 17.2433 68(8) 69.3431 68.3027
7524 17.2453 68(8) 69.3813 68.3003
7525 17.2473 69(8) 69.4400 68.2978
7526 17.2493 66(8) 69.5209 68.2953
7527 17.2513 67(8) 69.6246 68.2928
7528 17.2533 62(8) 69.7518 68.2903
7529 17.2553 71(8) 69.9028 68.2877
7530 17.2573 71(8) 70.0779 68.2852
7531 17.2593 71(8) 70.2765 68.2826
7532 17.2613 71(8) 70.4981 68.2801
7533 17.2633 68(8) 70.7412 68.2775
7534 17.2653 70(8) 71.0031 68.2749
7535 17.2673 71(8) 71.2813 68.2724
7536 17.2693 67(8) 71.5711 68.2697
7537 17.2713 80(9) 71.8699 68.2671
7538 17.2733 75(9) 72.1673 68.2645
7539 17.2753 70(8) 72.4585 68.2619
7540 17.2773 72(8) 72.7352 68.2592
7541 17.2793 73(9) 72.9884 68.2566
7542 17.2813 76(9) 73.2103 68.2539
7543 17.2833 81(9) 73.3924 68.2512
7544 17.2853 67(8) 73.5293 68.2485
7545 17.2873 76(9) 73.6097 68.2458
7546 17.2893 70(8) 73.6480 68.2431
7547 17.2913 77(9) 73.6378 68.2404
7548 17.2933 69(8) 73.5835 68.2377
7549 17.2953 75(9) 73.4905 68.2349
7550 17.2973 72(9) 73.3652 68.2321
7551 17.2993 79(9) 73.2138 68.2294
7552 17.3013 76(9) 73.0432 68.2266
7553 17.3033 69(8) 72.8534 68.2238
7554 17.3053 63(8) 72.6651 68.2210
7555 17.3073 75(9) 72.4779 68.2182
7556 17.3093 78(9) 72.2971 68.2153
7557 17.3113 72(9) 72.1277 68.2125
7558 17.3133 66(8) 71.9732 68.2097
7559 17.3153 73(9) 71.8358 68.2068
7560 17.3173 61(8) 71.7164 68.2039
7561 17.3193 72(8) 71.6125 68.2010
7562 17.3213 69(8) 71.5257 68.1982
7563 17.3233 67(8) 71.4510 68.1952
7564 17.3253 70(8) 71.3844 68.1923
7565 17.3273 73(9) 71.3208 68.1894
7566 17.3293 67(8) 71.2593 68.1865
7567 17.3313 73(9) 71.1870 68.1835
7568 17.3333 68(8) 71.1053 68.1805
7569 17.3353 71(8) 71.0087 68.1776
7570 17.3373 70(8) 70.8973 68.1746
7571 17.3393 76(9) 70.7719 68.1716
7572 17.3413 67(8) 70.6340 68.1686
7573 17.3433 73(9) 70.4838 68.1656
7574 17.3453 67(8) 70.3299 68.1625
7575 17.3473 72(8) 70.1724 68.1595
7576 17.3493 61(8) 70.0147 68.1564
7577 17.3513 65(8) 69.8591 68.1534
7578 17.3533 69(8) 69.7082 68.1503
7579 17.3553 68(8) 69.5637 68.1472
7580 17.3573 68(8) 69.4273 68.1441
7581 17.3593 74(9) 69.3002 68.1410
7582 17.3613 73(9) 69.1828 68.1378
7583 17.3633 71(8) 69.0761 68.1347
7584 17.3653 71(8) 68.9799 68.1316
7585 17.3673 69(8) 68.8942 68.1284
7586 17.3693 69(8) 68.8185 68.1252
7587 17.3713 72(8) 68.7550 68.1220
7588 17.3733 74(9) 68.6988 68.1188
7589 17.3753 69(8) 68.6495 68.1156
7590 17.3773 70(8) 68.6074 68.1124
7591 17.3793 67(8) 68.5717 68.1092
7592 17.3813 67(8) 68.5416 68.1059
7593 17.3833 63(8) 68.5174 68.1027
7594 17.3853 69(8) 68.4963 68.0994
7595 17.3873 67(8) 68.4789 68.0961
7596 17.3893 68(8) 68.4638 68.0928
7597 17.3913 69(8) 68.4522 68.0895
7598 17.3933 65(8) 68.4429 68.0862
7599 17.3953 73(9) 68.4358 68.0829
7600 17.3973 75(9) 68.4307 68.0795
7601 17.3993 75(9) 68.4275 68.0762
7602 17.4013 71(8) 68.4261 68.0728
7603 17.4033 67(8) 68.4266 68.0694
7604 17.4053 71(8) 68.4291 68.0660
7605 17.4073 72(9) 68.4336 68.0626
7606 17.4093 71(8) 68.4392 68.0592
7607 17.4113 65(8) 68.4484 68.0558
7608 17.4133 73(9) 68.4602 68.0524
7609 17.4153 73(9) 68.4747 68.0489
7610 17.4173 70(8) 68.4806 68.0454
7611 17.4193 67(8) 68.5013 68.0420
7612 17.4213 61(8) 68.5265 68.0385
7613 17.4233 67(8) 68.5601 68.0350
7614 17.4253 66(8) 68.5908 68.0315
7615 17.4273 72(8) 68.6251 68.0280
7616 17.4293 70(8) 68.6624 68.0244
7617 17.4313 71(8) 68.7031 68.0209
7618 17.4333 69(8) 68.7469 68.0173
7619 17.4353 68(8) 68.7935 68.0137
7620 17.4373 71(8) 68.8429 68.0101
7621 17.4393 68(8) 68.8948 68.0065
7622 17.4413 72(8) 68.9489 68.0029
7623 17.4433 65(8) 69.0049 67.9993
7624 17.4453 72(8) 69.0630 67.9957
7625 17.4473 71(8) 69.1231 67.9920
7626 17.4493 74(9) 69.1855 67.9884
7627 17.4513 67(8) 69.2513 67.9847
7628 17.4533 73(9) 69.3215 67.9810
7629 17.4553 74(9) 69.3976 67.9773
7630 17.4573 73(9) 69.4811 67.9736
7631 17.4593 69(8) 69.5739 67.9699
7632 17.4613 73(9) 69.6773 67.9661
7633 17.4633 66(8) 69.7930 67.9624
7634 17.4653 71(8) 69.9208 67.9586
7635 17.4673 69(8) 70.0612 67.9548
7636 17.4693 65(8) 70.2136 67.9511
7637 17.4713 73(9) 70.3781 67.9473
7638 17.4733 75(9) 70.5528 67.9434
7639 17.4753 72(8) 70.7357 67.9396
7640 17.4773 67(8) 70.9241 67.9358
7641 17.4793 75(9) 71.1155 67.9319
7642 17.4813 74(9) 71.3060 67.9281
7643 17.4833 69(8) 71.4920 67.9242
7644 17.4853 74(9) 71.6685 67.9203
7645 17.4873 73(9) 71.8310 67.9164
7646 17.4893 72(8) 71.9726 67.9125
7647 17.4913 69(8) 72.0964 67.9086
7648 17.4933 76(9) 72.1851 67.9046
7649 17.4953 79(9) 72.2417 67.9007
7650 17.4973 71(8) 72.2657 67.8967
7651 17.4993 78(9) 72.2589 67.8927
7652 17.5013 76(9) 72.2253 67.8887
7653 17.5033 67(8) 72.1721 67.8847
7654 17.5053 76(9) 72.1089 67.8807
7655 17.5073 69(8) 72.0431 67.8766
7656 17.5093 68(8) 71.9838 67.8726
7657 17.5113 72(9) 71.9396 67.8686
7658 17.5133 71(8) 71.9167 67.8645
7659 17.5153 69(8) 71.9220 67.8604
7660 17.5173 68(8) 71.9607 67.8563
7661 17.5193 75(9) 72.0366 67.8522
7662 17.5213 74(9) 72.1528 67.8481
7663 17.5233 73(9) 72.3091 67.8439
7664 17.5253 81(9) 72.5057 67.8398
7665 17.5273 74(9) 72.7420 67.8356
7666 17.5293 73(9) 73.0102 67.8314
7667 17.5313 75(9) 73.3071 67.8272
7668 17.5333 72(8) 73.6249 67.8231
7669 17.5353 69(8) 73.9556 67.8188
7670 17.5373 80(9) 74.2893 67.8146
7671 17.5393 72(9) 74.6169 67.8104
7672 17.5413 77(9) 74.9287 67.8061
7673 17.5433 78(9) 75.2177 67.8018
7674 17.5453 81(9) 75.4731 67.7975
7675 17.5473 75(9) 75.6893 67.7933
7676 17.5493 73(9) 75.8601 67.7889
7677 17.5513 76(9) 75.9775 67.7846
7678 17.5533 81(9) 76.0378 67.7803
7679 17.5553 77(9) 76.0342 67.7759
7680 17.5573 76(9) 75.9628 67.7716
7681 17.5593 77(9) 75.8220 67.7672
7682 17.5613 75(9) 75.6145 67.7628
7683 17.5633 70(8) 75.3450 67.7584
7684 17.5653 73(9) 75.0232 67.7540
7685 17.5673 71(8) 74.6606 67.7495
7686 17.5693 72(9) 74.2694 67.7451
7687 17.5713 80(9) 73.8623 67.7406
7688 17.5733 77(9) 73.4503 67.7362
7689 17.5753 73(9) 73.0446 67.7317
7690 17.5773 70(8) 72.6566 67.7272
7691 17.5793 72(8) 72.2865 67.7227
7692 17.5813 73(9) 71.9437 67.7182
7693 17.5833 74(9) 71.6314 67.7136
7694 17.5853 76(9) 71.3526 67.7090
7695 17.5873 72(8) 71.1079 67.7045
7696 17.5893 68(8) 70.9008 67.6999
7697 17.5913 71(8) 70.7235 67.6953
7698 17.5933 67(8) 70.5770 67.6907
7699 17.5953 74(9) 70.4589 67.6861
7700 17.5973 71(8) 70.3655 67.6814
7701 17.5993 65(8) 70.2937 67.6768
7702 17.6013 72(8) 70.2400 67.6721
7703 17.6033 66(8) 70.2015 67.6674
7704 17.6053 68(8) 70.1755 67.6627
7705 17.6073 72(8) 70.1599 67.6580
7706 17.6093 68(8) 70.1528 67.6533
7707 17.6113 70(8) 70.1525 67.6486
7708 17.6133 79(9) 70.1572 67.6438
7709 17.6153 71(8) 70.1650 67.6391
7710 17.6173 81(9) 70.1739 67.6343
7711 17.6193 68(8) 70.1816 67.6295
7712 17.6213 71(8) 70.1858 67.6247
7713 17.6233 73(9) 70.1841 67.6199
7714 17.6253 68(8) 70.1747 67.6151
7715 17.6273 69(8) 70.1563 67.6102
7716 17.6293 73(9) 70.1285 67.6053
7717 17.6313 70(8) 70.0920 67.6005
7718 17.6333 64(8) 70.0489 67.5956
7719 17.6353 66(8) 69.9982 67.5907
7720 17.6373 67(8) 69.9475 67.5857
7721 17.6393 67(8) 69.8978 67.5808
7722 17.6413 71(8) 69.8520 67.5759
7723 17.6433 78(9) 69.8135 67.5709
7724 17.6453 60(8) 69.7851 67.5659
7725 17.6473 71(8) 69.7700 67.5609
7726 17.6493 70(8) 69.7699 67.5559
7727 17.6513 78(9) 69.7894 67.5509
7728 17.6533 75(9) 69.8392 67.5459
7729 17.6553 65(8) 69.9026 67.5408
7730 17.6573 74(9) 69.9903 67.5358
7731 17.6593 75(9) 70.1031 67.5307
7732 17.6613 72(9) 70.2405 67.5256
7733 17.6633 69(8) 70.4021 67.5205
7734 17.6653 71(8) 70.5856 67.5154
7735 17.6673 72(9) 70.7887 67.5103
7736 17.6693 68(8) 71.0073 67.5051
7737 17.6713 68(8) 71.2373 67.4999
7738 17.6733 69(8) 71.4729 67.4948
7739 17.6753 68(8) 71.7075 67.4896
7740 17.6773 67(8) 71.9344 67.4844
7741 17.6793 71(8) 72.1456 67.4792
7742 17.6813 70(8) 72.3337 67.4739
7743 17.6833 73(9) 72.4915 67.4687
7744 17.6853 68(8) 72.6102 67.4634
7745 17.6873 65(8) 72.6917 67.4581
7746 17.6893 68(8) 72.7318 67.4528
7747 17.6913 76(9) 72.7324 67.4475
7748 17.6933 77(9) 72.6976 67.4422
7749 17.6953 70(8) 72.6338 67.4369
7750 17.6973 63(8) 72.5489 67.4315
7751 17.6993 67(8) 72.4513 67.4261
7752 17.7013 77(9) 72.3493 67.4207
7753 17.7033 67(8) 72.2504 67.4154
7754 17.7053 71(8) 72.1611 67.4099
7755 17.7073 63(8) 72.0867 67.4045
7756 17.7093 77(9) 72.0307 67.3991
7757 17.7113 70(8) 71.9962 67.3936
7758 17.7133 68(8) 71.9821 67.3881
7759 17.7153 74(9) 71.9882 67.3827
7760 17.7173 71(8) 72.0121 67.3772
7761 17.7193 69(8) 72.0501 67.3716
7762 17.7213 73(9) 72.0970 67.3661
7763 17.7233 70(8) 72.1471 67.3606
7764 17.7253 66(8) 72.1940 67.3550
7765 17.7273 67(8) 72.2319 67.3494
7766 17.7293 76(9) 72.2554 67.3438
7767 17.7313 74(9) 72.2611 67.3382
7768 17.7333 80(9) 72.2474 67.3326
7769 17.7353 70(8) 72.2147 67.3270
7770 17.7373 81(9) 72.1656 67.3213
7771 17.7393 67(8) 72.1044 67.3156
7772 17.7413 69(8) 72.0367 67.3100
7773 17.7433 66(8) 71.9687 67.3043
7774 17.7453 68(8) 71.9073 67.2986
7775 17.7473 70(8) 71.8590 67.2928
7776 17.7493 78(9) 71.8303 67.2871
7777 17.7513 80(9) 71.8268 67.2813
7778 17.7533 74(9) 71.8531 67.2755
7779 17.7553 73(9) 71.9124 67.2697
7780 17.7573 70(8) 72.0066 67.2639
7781 17.7593 75(9) 72.1358 67.2581
7782 17.7613 80(9) 72.2987 67.2523
7783 17.7633 64(8) 72.4919 67.2464
7784 17.7653 71(8) 72.7116 67.2406
7785 17.7673 82(9) 72.9487 67.2347
7786 17.7693 80(9) 73.1956 67.2288
7787 17.7713 74(9) 73.4428 67.2229
7788 17.7733 71(8) 73.6785 67.2169
7789 17.7753 70(8) 73.8909 67.2110
7790 17.7773 74(9) 74.0673 67.2050
7791 17.7793 69(8) 74.1959 67.1991
7792 17.7813 74(9) 74.2672 67.1931
7793 17.7833 74(9) 74.2742 67.1871
7794 17.7853 80(9) 74.2145 67.1810
7795 17.7873 77(9) 74.0898 67.1750
7796 17.7893 74(9) 73.9056 67.1690
7797 17.7913 76(9) 73.6708 67.1629
7798 17.7933 80(9) 73.3965 67.1568
7799 17.7953 75(9) 73.0940 67.1507
7800 17.7973 79(9) 72.7754 67.1446
7801 17.7993 70(8) 72.4511 67.1385
7802 17.8013 61(8) 72.1314 67.1323
7803 17.8033 75(9) 71.8250 67.1261
7804 17.8053 68(8) 71.5401 67.1200
7805 17.8073 74(9) 71.2831 67.1138
7806 17.8093 66(8) 71.0586 67.1076
7807 17.8113 70(8) 70.8712 67.1013
7808 17.8133 70(8) 70.7233 67.0951
7809 17.8153 69(8) 70.6168 67.0888
7810 17.8173 67(8) 70.5526 67.0826
7811 17.8193 63(8) 70.5303 67.0763
7812 17.8213 63(8) 70.5489 67.0700
7813 17.8233 68(8) 70.6068 67.0636
7814 17.8253 82(9) 70.7016 67.0573
7815 17.8273 79(9) 70.8309 67.0509
7816 17.8293 71(8) 70.9909 67.0446
7817 17.8313 66(8) 71.1788 67.0382
7818 17.8333 69(8) 71.3902 67.0318
7819 17.8353 70(8) 71.6201 67.0254
7820 17.8373 74(9) 71.8634 67.0189
7821 17.8393 67(8) 72.1132 67.0125
7822 17.8413 76(9) 72.3630 67.0060
7823 17.8433 74(9) 72.6047 66.9995
7824 17.8453 72(8) 72.8300 66.9930
7825 17.8473 72(9) 73.0312 66.9865
7826 17.8493 86(9) 73.2007 66.9800
7827 17.8513 70(8) 73.3289 66.9734
7828 17.8533 77(9) 73.4210 66.9669
7829 17.8553 74(9) 73.4728 66.9603
7830 17.8573 72(8) 73.4872 66.9537
7831 17.8593 71(8) 73.4700 66.9471
7832 17.8613 75(9) 73.4285 66.9404
7833 17.8633 80(9) 73.3712 66.9338
7834 17.8653 78(9) 73.3063 66.9271
7835 17.8673 76(9) 73.2415 66.9205
7836 17.8693 69(8) 73.1834 66.9138
7837 17.8713 71(8) 73.1372 66.9071
7838 17.8733 69(8) 73.1070 66.9003
7839 17.8753 68(8) 73.0953 66.8936
7840 17.8773 73(9) 73.1035 66.8868
7841 17.8793 71(8) 73.1316 66.8801
7842 17.8813 80(9) 73.1785 66.8733
7843 17.8833 65(8) 73.2418 66.8664
7844 17.8853 66(8) 73.3184 66.8596
7845 17.8873 74(9) 73.4044 66.8528
7846 17.8893 73(9) 73.4958 66.8459
7847 17.8913 74(9) 73.5880 66.8390
7848 17.8933 81(9) 73.6771 66.8321
7849 17.8953 78(9) 73.7584 66.8252
7850 17.8973 74(9) 73.8242 66.8183
7851 17.8993 74(9) 73.8775 66.8114
7852 17.9013 75(9) 73.9110 66.8044
7853 17.9033 79(9) 73.9219 66.7974
7854 17.9053 74(9) 73.9091 66.7904
7855 17.9073 70(8) 73.8734 66.7834
7856 17.9093 79(9) 73.8178 66.7764
7857 17.9113 82(9) 73.7477 66.7693
7858 17.9133 80(9) 73.6692 66.7623
7859 17.9153 86(9) 73.5838 66.7552
7860 17.9173 69(8) 73.5075 66.7481
7861 17.9193 74(9) 73.4438 66.7410
7862 17.9213 76(9) 73.3954 66.7339
7863 17.9233 75(9) 73.3650 66.7267
7864 17.9253 68(8) 73.3538 66.7196
7865 17.9273 76(9) 73.3614 66.7124
7866 17.9293 80(9) 73.3855 66.7052
7867 17.9313 74(9) 73.4228 66.6980
7868 17.9333 69(8) 73.4681 66.6907
7869 17.9353 73(9) 73.5154 66.6835
7870 17.9373 71(8) 73.5579 66.6762
7871 17.9393 77(9) 73.5887 66.6690
7872 17.9413 73(9) 73.6011 66.6617
7873 17.9433 77(9) 73.5896 66.6543
7874 17.9453 75(9) 73.5499 66.6470
7875 17.9473 82(9) 73.4794 66.6397
7876 17.9493 75(9) 73.3770 66.6323
7877 17.9513 74(9) 73.2433 66.6249
7878 17.9533 76(9) 73.0807 66.6175
7879 17.9553 73(9) 72.8926 66.6101
7880 17.9573 72(8) 72.6849 66.6027
7881 17.9593 79(9) 72.4630 66.5952
7882 17.9613 73(9) 72.2373 66.5877
7883 17.9633 71(8) 72.0157 66.5802
7884 17.9653 72(8) 71.8065 66.5727
7885 17.9673 72(9) 71.6188 66.5652
7886 17.9693 69(8) 71.4600 66.5577
7887 17.9713 72(8) 71.3377 66.5501
7888 17.9733 69(8) 71.2575 66.5425
7889 17.9753 67(8) 71.2247 66.5349
7890 17.9773 70(8) 71.2430 66.5273
7891 17.9793 72(8) 71.3151 66.5197
7892 17.9813 71(8) 71.4421 66.5121
7893 17.9833 74(9) 71.6242 66.5044
7894 17.9853 71(8) 71.8582 66.4967
7895 17.9873 76(9) 72.1441 66.4890
7896 17.9893 66(8) 72.4761 66.4813
7897 17.9913 68(8) 72.8474 66.4736
7898 17.9933 74(9) 73.2509 66.4658
7899 17.9953 69(8) 73.6767 66.4580
7900 17.9973 82(9) 74.1156 66.4502
7901 17.9993 80(9) 74.5564 66.4424
_pd_proc_number_of_points        7901

loop_
_refln_index_h
_refln_index_k
_refln_index_l
_refln_mult
_pd_refln_phase_id
_refln_observed_status
_refln_F_squared_meas
_refln_F_squared_calc
_refln_phase_calc
_refln_d_spacing
1 1 0 4 1 o 252.5883 283.6172 270.05 9.10032
2 0 0 2 1 o 583.3576 627.6804 0.02 8.94992
2 1 0 4 1 o 1714.8146 1505.8348 180.02 6.82977
1 0 1 4 1 o 36.7282 31.0985 90.20 5.45040
0 2 0 2 1 o 441.0119 399.7816 180.02 5.28400
3 1 0 4 1 o 2476.2615 2370.8667 270.02 5.19570
1 2 0 4 1 o 25.2071 24.1143 269.89 5.06780
0 1 1 4 1 o 3513.8796 3519.7344 270.00 5.03185
1 1 1 8 1 o 1970.1227 1977.3544 59.68 4.84409
2 0 1 4 1 o 246.2663 301.0969 90.06 4.82100
2 2 0 4 1 o 7949.5479 7431.4014 0.01 4.55016
4 0 0 2 1 o 481.9542 376.9636 359.97 4.47496
2 1 1 8 1 o 1512.8027 1495.8652 92.76 4.38616
3 0 1 4 1 o 736.0627 733.7250 270.00 4.12988
4 1 0 4 1 o 319.1750 340.6488 360.00 4.12075
3 2 0 4 1 o 2475.2415 2242.5688 270.00 3.95578
0 2 1 4 1 o 3943.0684 4077.0103 180.03 3.88201
3 1 1 8 1 o 6622.1006 6734.2812 332.02 3.84659
1 2 1 8 1 o 1086.3583 1029.6400 283.69 3.79381
2 2 1 8 1 o 7666.4961 7770.9019 167.27 3.56142
4 0 1 4 1 o 408.5091 444.5698 89.98 3.52502
1 3 0 4 1 o 121.3891 124.4281 270.00 3.45637
4 2 0 4 1 o 12.8133 12.8133 179.88 3.41489
5 1 0 4 1 o 32.7498 132.9245 90.07 3.39070
4 1 1 8 1 o 1489.2866 1606.9865 180.41 3.34390
2 3 0 4 1 o 79.2047 119.5675 0.04 3.27790
3 2 1 8 1 o 7776.2915 7835.3335 46.11 3.25392
5 0 1 4 1 o 776.6262 777.7797 90.02 3.03494
3 3 0 4 1 o 690.6548 681.1781 270.00 3.03344
0 3 1 4 1 o 1126.4449 1062.2878 90.03 2.99979
6 0 0 2 1 o 1200.8755 1110.7451 0.05 2.98331
5 2 0 4 1 o 1943.0806 1786.1575 90.04 2.96380
1 3 1 8 1 o 4964.0464 4848.1875 51.48 2.95853
4 2 1 8 1 o 639.7804 656.6674 264.05 2.93239
5 1 1 8 1 o 313.7856 308.5521 44.26 2.91703
6 1 0 4 1 o 2887.3560 2692.4644 0.03 2.87110
0 0 2 2 1 o 1681.7341 1666.1421 180.04 2.86106
2 3 1 8 1 o 2030.9061 1843.2395 209.78 2.84428
1 0 2 4 1 o 8.6768 6.4391 359.99 2.82520
4 3 0 4 1 o 1308.1184 1097.5266 0.02 2.76795
0 1 2 4 1 o 77.7388 58.2035 90.04 2.76164
1 1 2 8 1 o 585.4205 613.7014 325.71 2.72935
2 0 2 4 1 o 321.9555 335.5223 180.04 2.72520
3 3 1 8 1 o 2410.5823 2442.5513 100.82 2.68013
6 0 1 4 1 o 48.6298 43.6358 270.10 2.64536
0 4 0 2 1 o 1096.9312 1174.5387 180.03 2.64200
2 1 2 8 1 o 331.0220 338.5912 82.41 2.63887
5 2 1 8 1 o 576.0572 519.7178 102.93 2.63173
1 4 0 4 1 o 47.6865 36.5690 270.08 2.61368
6 2 0 4 1 o 0.4673 0.2601 179.56 2.59785
3 0 2 4 1 o 29.9841 25.9294 179.94 2.57980
6 1 1 8 1 o 291.5532 275.3846 345.62 2.56619
2 4 0 4 1 o 102.9217 99.1140 180.04 2.53390
0 2 2 4 1 o 1479.6094 1493.9156 0.03 2.51593
5 3 0 4 1 o 116.2276 121.2563 270.05 2.51092
3 1 2 8 1 o 1606.6494 1583.7074 145.22 2.50621
4 3 1 8 1 o 42.8730 42.6741 224.68 2.49173
1 2 2 8 1 o 298.1322 296.3227 247.64 2.49144
7 1 0 4 1 o 151.9326 122.4848 90.00 2.48540
2 2 2 8 1 o 4098.3960 4020.4082 291.77 2.42205
3 4 0 4 1 o 1335.5629 1355.0370 90.04 2.41577
4 0 2 4 1 o 510.3264 450.1566 180.02 2.41050
0 4 1 4 1 o 16.6463 18.5668 359.94 2.39867
1 4 1 8 1 o 1930.2731 1710.2119 21.59 2.37742
6 2 1 8 1 o 2040.1271 1837.5884 191.38 2.36548
4 1 2 8 1 o 827.1421 790.5272 4.28 2.35014
7 0 1 4 1 o 1132.2960 1152.0338 90.05 2.33461
3 2 2 8 1 o 269.4706 279.7459 162.80 2.31826
2 4 1 8 1 o 711.3229 747.2577 278.22 2.31690
7 2 0 4 1 o 1759.1201 1695.5582 90.03 2.30176
5 3 1 8 1 o 942.5795 929.8297 308.27 2.29929
7 1 1 8 1 o 2550.1028 2636.2544 146.26 2.27964
6 3 0 4 1 o 1.4281 1.5120 179.95 2.27659
4 4 0 4 1 o 232.9564 253.9232 180.05 2.27508
8 0 0 2 1 o 1135.4844 1285.8877 0.06 2.23748
5 0 2 4 1 o 577.9318 613.5233 0.02 2.23500
3 4 1 8 1 o 533.4266 606.2299 291.37 2.22556
0 3 2 4 1 o 772.9008 942.2510 90.03 2.22085
1 3 2 8 1 o 129.8224 225.7314 49.90 2.20395
4 2 2 8 1 o 435.4448 502.0186 140.06 2.19308
8 1 0 4 1 o 41.4438 51.5154 0.11 2.18896
5 1 2 8 1 o 298.9152 383.5090 37.94 2.18663
2 3 2 8 1 o 81.2147 130.6586 218.60 2.15548
7 2 1 8 1 o 873.8517 882.8562 62.94 2.13546
5 4 0 4 1 o 2157.1965 2221.4148 90.03 2.12579
6 3 1 8 1 o 47.8568 48.3341 191.53 2.11532
4 4 1 8 1 o 157.3705 163.1005 244.75 2.11411
1 5 0 4 1 o 0.0294 0.0294 92.36 2.09902
8 0 1 4 1 o 179.6385 190.3403 90.05 2.08384
3 3 2 8 1 o 430.4570 418.2245 252.22 2.08135
7 3 0 4 1 o 4.3186 11.8550 269.87 2.06938
6 0 2 4 1 o 59.6853 60.2460 359.94 2.06494
8 2 0 4 1 o 513.4291 464.5393 180.03 2.06037
5 2 2 8 1 o 507.1584 477.3315 225.81 2.05844
2 5 0 4 1 o 2114.4133 2048.6580 180.05 2.05702
8 1 1 8 1 o 814.8790 853.1086 44.05 2.04447
6 1 2 8 1 o 541.5382 486.6629 131.10 2.02661
5 4 1 8 1 o 281.0623 295.9781 338.75 1.99272
3 5 0 4 1 o 609.8543 644.6870 90.03 1.99229
4 3 2 8 1 o 20.2137 19.3878 252.87 1.98934
0 5 1 4 1 o 375.0093 344.7600 90.06 1.98267
6 4 0 4 1 o 2293.6755 2177.7852 180.04 1.97789
1 5 1 8 1 o 899.5895 853.9122 310.69 1.97062
9 1 0 4 1 o 625.2271 674.2803 270.04 1.95456
7 3 1 8 1 o 285.2259 268.2260 2.90 1.94603
0 4 2 4 1 o 1814.4054 1706.8130 0.02 1.94100
8 2 1 8 1 o 363.8685 346.6248 153.07 1.93854
2 5 1 8 1 o 260.3402 253.2693 161.15 1.93574
1 4 2 8 1 o 236.0944 207.4822 317.02 1.92969
6 2 2 8 1 o 42.7537 42.2503 123.65 1.92329
4 5 0 4 1 o 93.5771 97.5244 0.05 1.91115
7 0 2 4 1 o 52.0807 44.7523 180.11 1.90659
2 4 2 8 1 o 453.4123 493.5292 345.54 1.89691
1 0 3 4 1 o 560.2070 606.2863 270.07 1.89663
8 3 0 4 1 o 1454.3936 1453.1023 0.02 1.88870
5 3 2 8 1 o 1153.4725 1128.4733 136.97 1.88721
3 5 1 8 1 o 15.2310 15.7768 182.12 1.88151
9 0 1 4 1 o 1404.6069 1362.5038 90.04 1.87863
0 1 3 4 1 o 57.7556 55.3007 90.07 1.87704
7 1 2 8 1 o 674.5881 645.8890 74.93 1.87630
6 4 1 8 1 o 117.9500 106.5926 345.46 1.86936
1 1 3 8 1 o 236.0762 223.1820 6.74 1.86681
2 0 3 4 1 o 490.8964 480.4678 270.04 1.86548
9 2 0 4 1 o 49.6983 51.2089 270.02 1.86138
9 1 1 8 1 o 48.5583 40.0563 85.54 1.84963
3 4 2 8 1 o 21.5757 21.0206 201.04 1.84579
7 4 0 4 1 o 59.7394 56.7525 270.10 1.83743
2 1 3 8 1 o 120.6773 113.2926 185.64 1.83708
5 5 0 4 1 o 992.1492 958.2172 270.03 1.82006
3 0 3 4 1 o 64.7421 52.6989 90.04 1.81680
4 5 1 8 1 o 488.7102 402.8977 308.19 1.81272
0 2 3 4 1 o 190.0611 177.3170 0.01 1.79407
8 3 1 8 1 o 716.5750 667.3978 118.75 1.79353
7 2 2 8 1 o 166.4192 154.9193 257.09 1.79342
3 1 3 8 1 o 613.3745 574.9663 91.50 1.79053
10 0 0 2 1 o 163.1850 154.8463 180.03 1.78998
1 2 3 8 1 o 417.1871 435.5345 18.25 1.78512
6 3 2 8 1 o 2861.1497 2801.4558 12.73 1.78144
4 4 2 8 1 o 3055.6133 2970.3140 354.03 1.78071
9 2 1 8 1 o 528.0624 502.2780 314.93 1.77009
10 1 0 4 1 o 46.1611 49.3595 180.11 1.76485
8 0 2 4 1 o 290.9556 319.7669 180.06 1.76251
0 6 0 2 1 o 427.4707 460.0757 180.07 1.76133
2 2 3 8 1 o 1501.9244 1528.6420 15.14 1.75907
4 0 3 4 1 o 163.4889 165.6037 90.06 1.75463
1 6 0 4 1 o 210.7750 218.3850 270.07 1.75287
7 4 1 8 1 o 350.8716 360.0915 224.66 1.74945
8 1 2 8 1 o 1281.1041 1268.4805 112.12 1.73850
5 5 1 8 1 o 1068.2640 1114.5957 110.13 1.73444
9 3 0 4 1 o 374.2291 375.9719 90.04 1.73190
4 1 3 8 1 o 765.3439 745.7647 255.19 1.73094
2 6 0 4 1 o 9.5917 8.9717 359.90 1.72819
6 5 0 4 1 o 1113.2767 1120.6976 0.06 1.72463
3 2 3 8 1 o 640.8815 608.2123 126.83 1.71808
10 0 1 4 1 o 381.9488 391.2484 90.05 1.70835
8 4 0 4 1 o 5.1198 5.1796 180.05 1.70744
5 4 2 8 1 o 2531.6602 2529.4253 202.33 1.70634
0 5 2 4 1 o 959.9896 896.7213 270.03 1.70002
10 2 0 4 1 o 28.4197 24.0235 180.06 1.69535
1 5 2 8 1 o 455.3045 428.1543 336.57 1.69240
3 6 0 4 1 o 294.4746 296.9881 90.03 1.68927
10 1 1 8 1 o 888.9274 879.6335 61.87 1.68646
0 6 1 4 1 o 160.3404 153.0599 0.08 1.68339
5 0 3 4 1 o 1754.6246 1674.2721 90.03 1.68335
0 3 3 4 1 o 12.8173 12.9906 270.00 1.67728
7 3 2 8 1 o 528.4625 538.6096 281.15 1.67675
1 6 1 8 1 o 268.1206 274.8535 264.16 1.67599
8 2 2 8 1 o 1082.1034 1053.3760 318.74 1.67195
2 5 2 8 1 o 847.0462 832.3160 16.28 1.67016
1 3 3 8 1 o 36.7814 36.2046 112.74 1.66997
4 2 3 8 1 o 266.1373 268.7630 348.04 1.66522
5 1 3 8 1 o 1344.1746 1304.0979 284.82 1.66240
9 3 1 8 1 o 396.0600 374.3681 130.02 1.65764
2 6 1 8 1 o 775.2845 798.1418 332.10 1.65438
6 5 1 8 1 o 304.8421 300.5358 144.04 1.65126
2 3 3 8 1 o 559.8240 520.2185 210.90 1.64858
4 6 0 4 1 o 1406.9901 1544.2186 0.04 1.63895
8 4 1 8 1 o 355.1352 366.2701 227.05 1.63616
3 5 2 8 1 o 173.9715 169.8680 215.72 1.63495
9 0 2 4 1 o 340.6863 321.1176 0.04 1.63306
7 5 0 4 1 o 5.5591 5.7590 269.98 1.62913
6 4 2 8 1 o 2037.4088 2117.2798 55.71 1.62696
10 2 1 8 1 o 16.0757 16.2225 41.78 1.62551
3 6 1 8 1 o 1329.3716 1363.9449 319.23 1.62014
3 3 3 8 1 o 654.7253 608.1313 337.98 1.61470
9 1 2 8 1 o 128.1370 120.7324 359.83 1.61390
11 1 0 4 1 o 9.6068 10.9695 89.98 1.60830
6 0 3 4 1 o 219.9908 251.1497 270.02 1.60700
5 2 3 8 1 o 422.9947 451.8391 208.28 1.60393
10 3 0 4 1 o 14.5233 10.3357 179.96 1.59579
4 5 2 8 1 o 753.6506 705.8807 35.89 1.58920
9 4 0 4 1 o 1851.6163 1727.9626 90.03 1.58897
6 1 3 8 1 o 52.3315 48.6072 51.56 1.58874
5 6 0 4 1 o 74.2486 116.6234 270.08 1.58041
8 3 2 8 1 o 189.9479 228.1381 194.09 1.57622
4 6 1 8 1 o 312.0933 372.2260 335.73 1.57559
4 3 3 8 1 o 123.7518 116.5186 256.56 1.57059
7 5 1 8 1 o 83.7518 154.4532 10.53 1.56686
11 0 1 4 1 o 1.1630 5.8801 269.85 1.56520
9 2 2 8 1 o 300.4998 313.3697 302.08 1.56024
11 2 0 4 1 o 1197.0242 1210.3053 90.04 1.55518
11 1 1 8 1 o 49.8775 47.7121 330.25 1.54831
0 4 3 4 1 o 59.3610 59.8408 359.98 1.54647
7 4 2 8 1 o 262.7455 274.2209 310.46 1.54606
1 4 3 8 1 o 147.7384 136.4066 132.28 1.54073
6 2 3 8 1 o 191.4157 174.8289 63.32 1.53747
10 3 1 8 1 o 468.4174 431.4873 50.31 1.53713
8 5 0 4 1 o 73.9361 69.1647 180.09 1.53647
5 5 2 8 1 o 1047.4507 993.5071 248.31 1.53567
9 4 1 8 1 o 648.6392 629.0947 48.87 1.53103
7 0 3 4 1 o 1196.7867 1146.7538 270.06 1.52890
2 4 3 8 1 o 299.3787 306.8231 59.60 1.52389
5 6 1 8 1 o 83.7645 86.0348 172.59 1.52338
5 3 3 8 1 o 864.8391 874.4313 247.43 1.51885
10 0 2 4 1 o 1133.3859 1187.7058 180.04 1.51747
6 6 0 4 1 o 8.5043 9.0374 0.03 1.51672
7 1 3 8 1 o 386.1410 342.8673 297.16 1.51314
1 7 0 4 1 o 40.4809 33.0494 90.00 1.50437
10 1 2 8 1 o 51.9892 47.0694 85.29 1.50206
11 2 1 8 1 o 573.1323 513.2485 85.42 1.50074
0 6 2 4 1 o 129.5645 114.5142 0.07 1.49989
3 4 3 8 1 o 259.6113 237.9792 53.88 1.49701
1 6 2 8 1 o 293.7394 286.2764 126.31 1.49466
12 0 0 2 1 o 17.4990 15.6112 359.98 1.49165
2 7 0 4 1 o 1082.3081 1206.2179 0.04 1.48868
8 5 1 8 1 o 164.6391 153.4880 125.11 1.48391
10 4 0 4 1 o 406.8623 387.5367 0.04 1.48190
9 3 2 8 1 o 107.8167 103.2356 248.96 1.48159
2 6 2 8 1 o 254.9059 249.9799 61.52 1.47927
11 3 0 4 1 o 114.3093 103.1618 89.98 1.47726
6 5 2 8 1 o 43.3384 38.5699 63.00 1.47704
12 1 0 4 1 o 185.2387 164.6328 180.04 1.47701
7 2 3 8 1 o 7.5416 11.7158 98.86 1.46865
8 4 2 8 1 o 103.9925 103.4612 231.25 1.46619
6 6 1 8 1 o 138.6798 137.8889 339.54 1.46609
3 7 0 4 1 o 84.0078 88.6211 270.02 1.46359
6 3 3 8 1 o 130.5052 138.6508 105.77 1.46205
4 4 3 8 1 o 129.1413 133.1508 36.49 1.46165
0 7 1 4 1 o 155.9823 142.8821 90.03 1.45976
10 2 2 8 1 o 69.7368 63.0510 296.39 1.45852
1 7 1 8 1 o 160.4211 140.4996 9.65 1.45493
3 6 2 8 1 o 249.8646 215.6773 174.34 1.45464
8 0 3 4 1 o 91.3502 61.9729 270.09 1.45154
7 6 0 4 1 o 128.3905 86.5823 270.13 1.45054
9 5 0 4 1 o 316.5220 236.4890 90.08 1.44843
12 0 1 4 1 o 123.6600 121.0302 270.07 1.44342
2 7 1 8 1 o 993.3185 1125.2820 6.42 1.44072
8 1 3 8 1 o 45.4166 42.4681 290.23 1.43803
12 2 0 4 1 o 64.3457 64.6180 0.06 1.43555
10 4 1 8 1 o 14.2601 16.0239 47.52 1.43457
0 0 4 2 1 o 128.9829 110.5525 0.07 1.43053
4 7 0 4 1 o 17.4775 14.9754 180.02 1.43050
11 3 1 8 1 o 384.9544 329.4344 35.43 1.43036
12 1 1 8 1 o 201.8945 172.5739 314.46 1.43014
1 0 4 4 1 o 28.0809 18.8659 0.17 1.42598
4 6 2 8 1 o 14.1175 10.9718 251.89 1.42214
5 4 3 8 1 o 1259.4360 1098.2747 68.37 1.41967
3 7 1 8 1 o 32.4058 30.4604 125.15 1.41794
0 1 4 4 1 o 713.8278 680.3589 90.05 1.41760
0 5 3 4 1 o 211.7805 209.1486 270.04 1.41603
7 5 2 8 1 o 445.9502 442.4462 172.87 1.41571
11 0 2 4 1 o 885.6306 899.9298 0.05 1.41448
1 1 4 8 1 o 107.2080 115.6269 95.37 1.41317
2 0 4 4 1 o 337.6689 381.1399 0.06 1.41260
1 5 3 8 1 o 123.2009 151.4928 85.75 1.41162
7 6 1 8 1 o 483.6289 508.5161 305.25 1.40606
9 5 1 8 1 o 211.3463 216.2695 284.56 1.40415
7 3 3 8 1 o 175.0714 169.3929 119.13 1.40250
11 1 2 8 1 o 244.5771 236.3351 251.44 1.40198
2 1 4 8 1 o 594.3906 651.2679 199.71 1.40015
8 2 3 8 1 o 29.1099 34.1180 85.69 1.39968
2 5 3 8 1 o 10.7594 14.9590 322.78 1.39863
10 3 2 8 1 o 601.3165 612.2534 205.98 1.39366
12 2 1 8 1 o 617.6385 615.2599 207.37 1.39240
3 0 4 4 1 o 195.8671 193.0935 180.01 1.39111
5 7 0 4 1 o 85.5254 84.2662 90.04 1.39108
9 4 2 8 1 o 248.6534 222.9185 338.62 1.38911
4 7 1 8 1 o 22.4227 18.6493 324.47 1.38779
11 4 0 4 1 o 173.6219 151.7338 90.08 1.38554
8 6 0 4 1 o 212.9660 203.4762 180.11 1.38397
5 6 2 8 1 o 1043.5552 1014.8193 35.80 1.38339
0 2 4 4 1 o 32.4340 30.7942 180.10 1.38082
3 1 4 8 1 o 57.8801 55.7226 230.22 1.37921
3 5 3 8 1 o 100.6625 95.6059 79.76 1.37776
1 2 4 8 1 o 84.6576 80.1952 155.82 1.37673
9 0 3 4 1 o 220.9478 209.5353 270.11 1.37663
12 3 0 4 1 o 587.6193 596.3290 0.06 1.37358
6 4 3 8 1 o 111.0685 116.7241 175.88 1.37297
11 2 2 8 1 o 422.5794 438.6124 29.51 1.36637
10 5 0 4 1 o 7.9954 8.3098 180.30 1.36595
13 1 0 4 1 o 149.9459 158.8634 270.03 1.36537
9 1 3 8 1 o 82.5975 88.7820 120.12 1.36509
2 2 4 8 1 o 0.0891 0.0982 44.30 1.36467
4 0 4 4 1 o 443.0630 490.4429 0.05 1.36260
8 5 2 8 1 o 78.1396 57.8723 85.18 1.35363
5 7 1 8 1 o 48.0320 40.2218 238.56 1.35171
4 1 4 8 1 o 11.8050 10.0481 298.66 1.35141
4 5 3 8 1 o 461.6884 414.4883 121.39 1.35005
6 7 0 4 1 o 0.2464 0.2316 181.60 1.34705
11 4 1 8 1 o 371.1698 350.7289 279.43 1.34662
3 2 4 8 1 o 570.8712 552.3034 87.60 1.34527
8 6 1 8 1 o 166.2887 161.0882 45.62 1.34519
8 3 3 8 1 o 110.0358 107.0789 35.43 1.34207
6 6 2 8 1 o 181.2347 174.1615 214.41 1.34006
13 0 1 4 1 o 75.9677 73.3770 90.06 1.33870
12 3 1 8 1 o 347.4633 408.6020 348.13 1.33564
0 7 2 4 1 o 255.1958 305.2726 270.08 1.33522
13 2 0 4 1 o 530.3343 549.5426 90.07 1.33242
9 2 3 8 1 o 114.3424 116.3743 76.19 1.33216
1 7 2 8 1 o 101.1624 99.1979 74.82 1.33152
10 5 1 8 1 o 135.7588 131.3797 244.27 1.32862
5 0 4 4 1 o 1354.5209 1322.1514 180.05 1.32840
13 1 1 8 1 o 19.4043 19.2202 177.93 1.32809
0 3 4 4 1 o 126.7573 136.2598 270.05 1.32541
7 4 3 8 1 o 638.1797 629.6389 75.07 1.32330
12 0 2 4 1 o 0.2462 0.2434 359.46 1.32268
1 3 4 8 1 o 70.1275 69.9354 280.65 1.32179
0 8 0 2 1 o 222.6403 218.9390 0.09 1.32100
2 7 2 8 1 o 194.1507 187.8103 239.43 1.32061
4 2 4 8 1 o 590.0874 541.7635 31.68 1.31943
9 6 0 4 1 o 0.0588 0.0532 269.90 1.31859
5 1 4 8 1 o 42.7885 38.8444 301.09 1.31803
1 8 0 4 1 o 69.5598 63.6150 270.04 1.31742
5 5 3 8 1 o 430.8511 397.8816 20.28 1.31676
10 4 2 8 1 o 371.5950 350.8458 58.74 1.31587
11 3 2 8 1 o 73.9142 74.5025 182.08 1.31261
12 1 2 8 1 o 0.0000 298.3715 356.26 1.31244
6 7 1 8 1 o 0.0000 266.5339 123.64 1.31121
2 3 4 8 1 o 0.0000 865.7108 64.37 1.31111
2 8 0 4 1 o 0.0000 173.9344 0.05 1.30684
10 0 3 4 1 o 0.0000 1.9859 90.30 1.30524
3 7 2 8 1 o 0.0000 164.4303 287.30 1.30300

