####################################################################### 
# 
# This file contains crystal structure data downloaded from the 
# Cambridge Structural Database (CSD) hosted by the Cambridge 
# Crystallographic Data Centre (CCDC).
# 
# Full information about CCDC data access policies and citation 
# guidelines are available at http://www.ccdc.cam.ac.uk/access/V1 
# 
# Audit and citation data items may have been added by the CCDC. 
# Please retain this information to preserve the provenance of 
# this file and to allow appropriate attribution of the data. 
# 
#######################################################################

data_171207_fpt_o
_audit_block_doi                 10.5517/ccdc.csd.cc1zqndr
_database_code_depnum_ccdc_archive 'CCDC 1839025'
loop_
_citation_id
_citation_doi
_citation_year
1 10.1039/C8TA03753A 2018
loop_
_audit_author_name
_audit_author_address
'Shuixing Li'
;Zhejiang University
China
;
_audit_update_record             
;
2018-04-23 deposited with the CCDC.	2020-08-11 downloaded from the CCDC.
;
_audit_creation_date             2017-12-07
_audit_creation_method           
;
Olex2 1.2
(compiled 2017.03.28 svn.r3405 for OlexSys, GUI svn.r5381)
;
_shelx_SHELXL_version_number     2016/6
_chemical_name_common            ?
_chemical_name_systematic        ?
_chemical_formula_moiety         'C16 H12 F2 O2 S2'
_chemical_formula_sum            'C16 H12 F2 O2 S2'
_chemical_formula_weight         338.38
_chemical_melting_point          ?
_chemical_oxdiff_formula         'C H N O S'
loop_
_atom_type_symbol
_atom_type_description
_atom_type_scat_dispersion_real
_atom_type_scat_dispersion_imag
_atom_type_scat_source
C C 0.0033 0.0016 'International Tables Vol C Tables 4.2.6.8 and 6.1.1.4'
H H 0.0000 0.0000 'International Tables Vol C Tables 4.2.6.8 and 6.1.1.4'
F F 0.0171 0.0103 'International Tables Vol C Tables 4.2.6.8 and 6.1.1.4'
O O 0.0106 0.0060 'International Tables Vol C Tables 4.2.6.8 and 6.1.1.4'
S S 0.1246 0.1234 'International Tables Vol C Tables 4.2.6.8 and 6.1.1.4'

_shelx_space_group_comment       
;
The symmetry employed for this shelxl refinement is uniquely defined
by the following loop, which should always be used as a source of
symmetry information in preference to the above space-group names.
They are only intended as comments.
;
_space_group_crystal_system      monoclinic
_space_group_IT_number           14
_space_group_name_H-M_alt        'P 1 21/n 1'
_space_group_name_Hall           '-P 2yn'
loop_
_space_group_symop_operation_xyz
'x, y, z'
'-x+1/2, y+1/2, -z+1/2'
'-x, -y, -z'
'x-1/2, -y-1/2, z-1/2'

_cell_length_a                   5.5646(6)
_cell_length_b                   6.9441(8)
_cell_length_c                   18.902(2)
_cell_angle_alpha                90
_cell_angle_beta                 98.039(12)
_cell_angle_gamma                90
_cell_volume                     723.22(15)
_cell_formula_units_Z            2
_cell_measurement_reflns_used    1412
_cell_measurement_temperature    150
_cell_measurement_theta_max      29.2899
_cell_measurement_theta_min      3.1227
_shelx_estimated_absorpt_T_max   0.962
_shelx_estimated_absorpt_T_min   0.871
_exptl_absorpt_coefficient_mu    0.394
_exptl_absorpt_correction_T_max  1.00000
_exptl_absorpt_correction_T_min  0.90430
_exptl_absorpt_correction_type   multi-scan
_exptl_absorpt_process_details   
;
CrysAlisPro, Agilent Technologies,
Version 1.171.35.11 (release 16-05-2011 CrysAlis171 .NET)
(compiled May 16 2011,17:55:39)
Empirical absorption correction using spherical harmonics,
 implemented in SCALE3 ABSPACK scaling algorithm.
;
_exptl_absorpt_special_details   ?
_exptl_crystal_colour            colourless
_exptl_crystal_colour_primary    colourless
_exptl_crystal_density_diffrn    1.554
_exptl_crystal_density_meas      ?
_exptl_crystal_density_method    ?
_exptl_crystal_description       needle
_exptl_crystal_F_000             348
_exptl_crystal_size_max          0.36
_exptl_crystal_size_mid          0.18
_exptl_crystal_size_min          0.1
_exptl_transmission_factor_max   ?
_exptl_transmission_factor_min   ?
_diffrn_reflns_av_R_equivalents  0.0446
_diffrn_reflns_av_unetI/netI     0.0455
_diffrn_reflns_Laue_measured_fraction_full 0.998
_diffrn_reflns_Laue_measured_fraction_max 0.998
_diffrn_reflns_limit_h_max       6
_diffrn_reflns_limit_h_min       -6
_diffrn_reflns_limit_k_max       8
_diffrn_reflns_limit_k_min       -6
_diffrn_reflns_limit_l_max       22
_diffrn_reflns_limit_l_min       -21
_diffrn_reflns_number            4341
_diffrn_reflns_point_group_measured_fraction_full 0.998
_diffrn_reflns_point_group_measured_fraction_max 0.998
_diffrn_reflns_theta_full        25.242
_diffrn_reflns_theta_max         25.346
_diffrn_reflns_theta_min         3.129
_diffrn_ambient_temperature      150
_diffrn_detector_area_resol_mean 10.3592
_diffrn_measured_fraction_theta_full 0.998
_diffrn_measured_fraction_theta_max 0.998
_diffrn_measurement_details      
;
#__ type_ start__ end____ width___ exp.time_
  1 omega  -43.00   32.00   1.0000    3.0000
omega____ theta____ kappa____ phi______ frames
    -      -11.4683   82.0000  162.0000 75

#__ type_ start__ end____ width___ exp.time_
  2 omega  -89.00   19.00   1.0000    3.0000
omega____ theta____ kappa____ phi______ frames
    -      -11.4683  -77.0000   30.0000 108

#__ type_ start__ end____ width___ exp.time_
  3 omega  -12.00   83.00   1.0000    3.0000
omega____ theta____ kappa____ phi______ frames
    -       11.7808   38.0000  -30.0000 95
;
_diffrn_measurement_device_type  'Xcalibur, Atlas, Gemini ultra'
_diffrn_measurement_method       '\w scans'
_diffrn_orient_matrix_UB_11      -0.0849732000
_diffrn_orient_matrix_UB_12      -0.0762612000
_diffrn_orient_matrix_UB_13      -0.0066228000
_diffrn_orient_matrix_UB_21      -0.0512797000
_diffrn_orient_matrix_UB_22      0.0451494000
_diffrn_orient_matrix_UB_23      -0.0322472000
_diffrn_orient_matrix_UB_31      0.0820705000
_diffrn_orient_matrix_UB_32      -0.0507383000
_diffrn_orient_matrix_UB_33      -0.0187424000
_diffrn_radiation_monochromator  graphite
_diffrn_radiation_type           MoK\a
_diffrn_radiation_wavelength     0.71073
_diffrn_source                   'Enhance (Mo) X-ray Source'
_reflns_Friedel_coverage         0.000
_reflns_Friedel_fraction_full    .
_reflns_Friedel_fraction_max     .
_reflns_number_gt                1052
_reflns_number_total             1326
_reflns_odcompleteness_completeness 99.69
_reflns_odcompleteness_iscentric 1
_reflns_odcompleteness_theta     26.32
_reflns_special_details          
;
 Reflections were merged by SHELXL according to the crystal
 class for the calculation of statistics and refinement.
 
 _reflns_Friedel_fraction is defined as the number of unique
 Friedel pairs measured divided by the number that would be
 possible theoretically, ignoring centric projections and
 systematic absences.
;
_reflns_threshold_expression     'I > 2\s(I)'
_computing_cell_refinement       
;
CrysAlisPro, Agilent Technologies,
Version 1.171.35.11 (release 16-05-2011 CrysAlis171 .NET)
(compiled May 16 2011,17:55:39)
;
_computing_data_collection       
;
CrysAlisPro, Agilent Technologies,
Version 1.171.35.11 (release 16-05-2011 CrysAlis171 .NET)
(compiled May 16 2011,17:55:39)
;
_computing_data_reduction        
;
CrysAlisPro, Agilent Technologies,
Version 1.171.35.11 (release 16-05-2011 CrysAlis171 .NET)
(compiled May 16 2011,17:55:39)
;
_computing_molecular_graphics    'Olex2 (Dolomanov et al., 2009)'
_computing_publication_material  'Olex2 (Dolomanov et al., 2009)'
_computing_structure_refinement  'ShelXL (Sheldrick, 2015)'
_computing_structure_solution    'ShelXT (Sheldrick, 2015)'
_refine_diff_density_max         0.350
_refine_diff_density_min         -0.323
_refine_diff_density_rms         0.065
_refine_ls_extinction_coef       .
_refine_ls_extinction_method     none
_refine_ls_goodness_of_fit_ref   1.059
_refine_ls_hydrogen_treatment    constr
_refine_ls_matrix_type           full
_refine_ls_number_parameters     101
_refine_ls_number_reflns         1326
_refine_ls_number_restraints     0
_refine_ls_R_factor_all          0.0605
_refine_ls_R_factor_gt           0.0449
_refine_ls_restrained_S_all      1.059
_refine_ls_shift/su_max          0.000
_refine_ls_shift/su_mean         0.000
_refine_ls_structure_factor_coef Fsqd
_refine_ls_weighting_details     
'w=1/[\s^2^(Fo^2^)+(0.0454P)^2^+0.6891P] where P=(Fo^2^+2Fc^2^)/3'
_refine_ls_weighting_scheme      calc
_refine_ls_wR_factor_gt          0.1040
_refine_ls_wR_factor_ref         0.1151
_refine_special_details          ?
_olex2_refinement_description    
;
1. Fixed Uiso
 At 1.2 times of:
  All C(H) groups
 At 1.5 times of:
  All C(H,H,H) groups
2.a Aromatic/amide H refined with riding coordinates:
 C1(H1), C2(H2), C3(H3)
2.b Idealised Me refined as rotating group:
 C8(H8A,H8B,H8C)
;
_atom_sites_solution_hydrogens   geom
_atom_sites_solution_primary     dual
_atom_sites_solution_secondary   ?
loop_
_atom_site_label
_atom_site_type_symbol
_atom_site_fract_x
_atom_site_fract_y
_atom_site_fract_z
_atom_site_U_iso_or_equiv
_atom_site_adp_type
_atom_site_occupancy
_atom_site_site_symmetry_order
_atom_site_calc_flag
_atom_site_refinement_flags_posn
_atom_site_refinement_flags_adp
_atom_site_refinement_flags_occupancy
_atom_site_disorder_assembly
_atom_site_disorder_group
S1 S 0.87928(14) 0.36755(12) 0.69599(4) 0.0361(3) Uani 1 1 d . . . . .
F1 F 0.7303(3) 0.1706(2) 0.47265(8) 0.0288(4) Uani 1 1 d . . . . .
O1 O 0.3882(3) 0.3033(3) 0.37282(9) 0.0241(5) Uani 1 1 d . . . . .
C1 C 1.1403(6) 0.2406(4) 0.71533(17) 0.0365(8) Uani 1 1 d . . . . .
H1 H 1.211257 0.208324 0.762493 0.044 Uiso 1 1 calc R . . . .
C2 C 1.2358(5) 0.1906(4) 0.65633(17) 0.0349(7) Uani 1 1 d . . . . .
H2 H 1.382931 0.120332 0.657869 0.042 Uiso 1 1 calc R . . . .
C3 C 1.0969(5) 0.2523(4) 0.59171(14) 0.0214(6) Uani 1 1 d . . . . .
H3 H 1.139058 0.229242 0.545452 0.026 Uiso 1 1 calc R . . . .
C4 C 0.8880(5) 0.3523(4) 0.60527(14) 0.0232(6) Uani 1 1 d . . . . .
C5 C 0.6911(5) 0.4285(4) 0.55247(14) 0.0208(6) Uani 1 1 d . . . . .
C6 C 0.6201(5) 0.3379(4) 0.48725(14) 0.0216(6) Uani 1 1 d . . . . .
C7 C 0.4381(5) 0.4038(4) 0.43583(13) 0.0209(6) Uani 1 1 d . . . . .
C8 C 0.1991(6) 0.1629(4) 0.37483(16) 0.0352(7) Uani 1 1 d . . . . .
H8A H 0.167357 0.097109 0.328593 0.053 Uiso 1 1 calc GR . . . .
H8B H 0.050853 0.227400 0.384818 0.053 Uiso 1 1 calc GR . . . .
H8C H 0.250283 0.068422 0.412459 0.053 Uiso 1 1 calc GR . . . .

loop_
_atom_site_aniso_label
_atom_site_aniso_U_11
_atom_site_aniso_U_22
_atom_site_aniso_U_33
_atom_site_aniso_U_23
_atom_site_aniso_U_13
_atom_site_aniso_U_12
S1 0.0384(5) 0.0420(5) 0.0258(4) -0.0043(3) -0.0023(3) 0.0067(4)
F1 0.0322(9) 0.0238(8) 0.0297(9) -0.0053(7) 0.0016(7) 0.0081(7)
O1 0.0281(10) 0.0247(10) 0.0195(10) -0.0038(8) 0.0037(8) -0.0036(8)
C1 0.0375(17) 0.0368(17) 0.0310(17) 0.0021(14) -0.0097(14) -0.0022(14)
C2 0.0212(15) 0.0335(17) 0.049(2) 0.0041(15) 0.0006(14) -0.0012(13)
C3 0.0186(13) 0.0215(14) 0.0234(14) 0.0027(11) -0.0002(10) -0.0006(11)
C4 0.0255(15) 0.0199(14) 0.0236(15) 0.0012(11) 0.0018(11) -0.0051(11)
C5 0.0220(14) 0.0199(13) 0.0206(13) 0.0025(11) 0.0035(11) -0.0017(11)
C6 0.0223(14) 0.0175(13) 0.0255(15) -0.0003(11) 0.0053(11) 0.0019(11)
C7 0.0249(14) 0.0214(13) 0.0174(13) -0.0013(11) 0.0061(11) -0.0055(11)
C8 0.0437(19) 0.0315(16) 0.0307(17) -0.0067(13) 0.0056(14) -0.0128(14)

_geom_special_details            
;
 All esds (except the esd in the dihedral angle between two l.s. planes)
 are estimated using the full covariance matrix.  The cell esds are taken
 into account individually in the estimation of esds in distances, angles
 and torsion angles; correlations between esds in cell parameters are only
 used when they are defined by crystal symmetry.  An approximate (isotropic)
 treatment of cell esds is used for estimating esds involving l.s. planes.
;
loop_
_geom_bond_atom_site_label_1
_geom_bond_atom_site_label_2
_geom_bond_distance
_geom_bond_site_symmetry_2
_geom_bond_publ_flag
S1 C1 1.695(3) . ?
S1 C4 1.726(3) . ?
F1 C6 1.360(3) . ?
O1 C7 1.375(3) . ?
O1 C8 1.439(3) . ?
C1 H1 0.9500 . ?
C1 C2 1.346(4) . ?
C2 H2 0.9500 . ?
C2 C3 1.417(4) . ?
C3 H3 0.9500 . ?
C3 C4 1.408(4) . ?
C4 C5 1.474(4) . ?
C5 C6 1.391(4) . ?
C5 C7 1.402(4) 3_666 ?
C6 C7 1.380(4) . ?
C8 H8A 0.9800 . ?
C8 H8B 0.9800 . ?
C8 H8C 0.9800 . ?

loop_
_geom_angle_atom_site_label_1
_geom_angle_atom_site_label_2
_geom_angle_atom_site_label_3
_geom_angle
_geom_angle_site_symmetry_1
_geom_angle_site_symmetry_3
_geom_angle_publ_flag
C1 S1 C4 92.29(14) . . ?
C7 O1 C8 112.4(2) . . ?
S1 C1 H1 123.8 . . ?
C2 C1 S1 112.4(2) . . ?
C2 C1 H1 123.8 . . ?
C1 C2 H2 123.1 . . ?
C1 C2 C3 113.9(3) . . ?
C3 C2 H2 123.1 . . ?
C2 C3 H3 124.5 . . ?
C4 C3 C2 110.9(3) . . ?
C4 C3 H3 124.5 . . ?
C3 C4 S1 110.48(19) . . ?
C3 C4 C5 127.5(2) . . ?
C5 C4 S1 122.0(2) . . ?
C6 C5 C4 122.0(2) . . ?
C6 C5 C7 115.3(2) . 3_666 ?
C7 C5 C4 122.7(2) 3_666 . ?
F1 C6 C5 119.1(2) . . ?
F1 C6 C7 116.6(2) . . ?
C7 C6 C5 124.3(2) . . ?
O1 C7 C5 120.8(2) . 3_666 ?
O1 C7 C6 118.8(2) . . ?
C6 C7 C5 120.4(2) . 3_666 ?
O1 C8 H8A 109.5 . . ?
O1 C8 H8B 109.5 . . ?
O1 C8 H8C 109.5 . . ?
H8A C8 H8B 109.5 . . ?
H8A C8 H8C 109.5 . . ?
H8B C8 H8C 109.5 . . ?

_shelx_res_file                  
;
TITL 171207_fpt_o_a.res in P2(1)/n
    171207_fpt_o.res
    created by SHELXL-2016/6 at 12:54:18 on 07-Dec-2017
REM Old TITL 171207_FPT_O in P21/n #14
REM SHELXT solution in P2(1)/n
REM R1 0.137, Rweak 0.553, Alpha 0.015, Orientation as input
REM Formula found by SHELXT: C8 O2 S
CELL 0.71073 5.5646 6.9441 18.9022 90 98.039 90
ZERR 2 0.0006 0.0008 0.0024 0 0.012 0
LATT 1
SYMM 0.5-X,0.5+Y,0.5-Z
SFAC C H F O S
UNIT 32 24 4 4 4

L.S. 6
PLAN  20
SIZE 0.1 0.18 0.36
TEMP -123.15
BOND $H
htab
list 4
fmap 2
acta
SHEL 999 0.83
REM <olex2.extras>
REM <HklSrc "%.\\171207_FPT_O.hkl">
REM </olex2.extras>

WGHT    0.045400    0.689100
FVAR       1.04322
S1    5    0.879281    0.367555    0.695985    11.00000    0.03841    0.04205 =
         0.02583   -0.00431   -0.00230    0.00671
F1    3    0.730341    0.170568    0.472653    11.00000    0.03222    0.02378 =
         0.02971   -0.00533    0.00155    0.00812
O1    4    0.388158    0.303313    0.372816    11.00000    0.02812    0.02468 =
         0.01947   -0.00379    0.00367   -0.00363
C1    1    1.140310    0.240584    0.715325    11.00000    0.03752    0.03676 =
         0.03102    0.00210   -0.00971   -0.00218
AFIX  43
H1    2    1.211257    0.208324    0.762493    11.00000   -1.20000
AFIX   0
C2    1    1.235801    0.190588    0.656330    11.00000    0.02117    0.03348 =
         0.04869    0.00412    0.00065   -0.00115
AFIX  43
H2    2    1.382931    0.120332    0.657869    11.00000   -1.20000
AFIX   0
C3    1    1.096888    0.252288    0.591707    11.00000    0.01858    0.02148 =
         0.02338    0.00271   -0.00021   -0.00063
AFIX  43
H3    2    1.139058    0.229242    0.545452    11.00000   -1.20000
AFIX   0
C4    1    0.888029    0.352310    0.605266    11.00000    0.02552    0.01995 =
         0.02363    0.00119    0.00178   -0.00512
C5    1    0.691060    0.428519    0.552469    11.00000    0.02199    0.01994 =
         0.02061    0.00247    0.00347   -0.00170
C6    1    0.620084    0.337920    0.487248    11.00000    0.02229    0.01748 =
         0.02551   -0.00029    0.00525    0.00189
C7    1    0.438110    0.403755    0.435833    11.00000    0.02488    0.02140 =
         0.01743   -0.00131    0.00614   -0.00547
C8    1    0.199084    0.162860    0.374832    11.00000    0.04368    0.03150 =
         0.03067   -0.00665    0.00559   -0.01280
AFIX 137
H8A   2    0.167357    0.097109    0.328593    11.00000   -1.50000
H8B   2    0.050853    0.227400    0.384818    11.00000   -1.50000
H8C   2    0.250283    0.068422    0.412459    11.00000   -1.50000
AFIX   0
HKLF 4




REM  171207_fpt_o_a.res in P2(1)/n
REM R1 =  0.0449 for    1052 Fo > 4sig(Fo)  and  0.0605 for all    1326 data
REM    101 parameters refined using      0 restraints

END

WGHT      0.0454      0.6909

REM Instructions for potential hydrogen bonds
EQIV $2 x-1/2, -y+1/2, z-1/2
HTAB C8 S1_$2
EQIV $3 x-1, y, z
HTAB C8 F1_$3

REM Highest difference peak  0.350,  deepest hole -0.323,  1-sigma level  0.065
Q1    1   0.9968  0.2482  0.5975  11.00000  0.05    0.35
Q2    1   1.1793  0.2761  0.6144  11.00000  0.05    0.32
Q3    1   1.1177  0.1983  0.6170  11.00000  0.05    0.31
Q4    1   1.0895  0.2231  0.5777  11.00000  0.05    0.30
Q5    1   1.0712  0.3385  0.7185  11.00000  0.05    0.24
Q6    1   1.2268  0.2825  0.6829  11.00000  0.05    0.23
Q7    1   0.3622  0.4641  0.3600  11.00000  0.05    0.22
Q8    1   0.5858  0.4730  0.5672  11.00000  0.05    0.22
Q9    1   1.2092  0.2579  0.7148  11.00000  0.05    0.21
Q10   1   0.4607  0.3303  0.3384  11.00000  0.05    0.20
Q11   1   0.0955  0.1993  0.2587  11.00000  0.05    0.19
Q12   1   0.0868  0.1799  0.4145  11.00000  0.05    0.19
Q13   1   0.3057  0.3589  0.3266  11.00000  0.05    0.19
Q14   1   0.8349  0.3964  0.5794  11.00000  0.05    0.19
Q15   1   1.1562  0.2135  0.7843  11.00000  0.05    0.18
Q16   1   0.7082  0.4205  0.5183  11.00000  0.05    0.18
Q17   1   0.8901  0.4859  0.7425  11.00000  0.05    0.17
Q18   1   0.6723  0.5309  0.5482  11.00000  0.05    0.17
Q19   1   0.1245 -0.1152  0.3159  11.00000  0.05    0.16
Q20   1   1.1217  0.1581  0.6800  11.00000  0.05    0.16
;
_shelx_res_checksum              42163
_shelx_hkl_file                  
;
   0   0   3    0.02    1.25
   0   0   4  735.73   17.29
   0   0   4  732.34   22.55
   0   0  -5   -0.92    1.74
   0   0   5    1.90    3.78
   0   0  -6  262.93   12.55
   0   0   6  247.94   16.13
   0   0   7   -2.72    3.32
   0   0  -7   -0.72    2.39
   0   0  -8   96.73    8.86
   0   0   8   99.64   12.30
   0   0   9    4.91    4.50
   0   0   9   -0.70    4.43
   0   0  -9    1.22    2.09
   0   0 -10 1105.90   33.33
   0   0  10 1032.38   43.08
   0   0  11    2.41    5.27
   0   0 -11    8.56    3.91
   0   0 -12 1770.04   45.43
   0   0  12 1605.81   59.87
   0   0  12 1657.40   60.06
   0   0 -13   14.30    4.94
   0   0  13   16.39    7.92
   0   0  13   17.32    9.00
   0   0 -14    2.40    1.94
   0   0  14    3.02    4.90
   0   0  14   -3.48    5.33
   0   0  15    7.56    7.94
   0   0  15    4.65    5.48
   0   0 -15    0.99    2.54
   0   0 -16  202.51   17.71
   0   0  16  187.58   24.63
   0   0 -17    7.42    3.88
   0   0  17   -2.15    5.17
   0   0 -18   19.04    5.82
   0   0  18  208.24   27.24
   0   0  19   -3.66    7.39
   0   0  20   47.11   14.41
   0   0  21    6.55    6.99
   0   0  22   64.70   18.00
   0   0  23   -5.27    7.62
   0   0  24    5.20    7.11
   0   0  25   12.14   10.43
   0   1  -1 1874.38   24.18
   0   1  -2  709.20   14.41
   0  -1   2  670.70   19.89
   0   1   2  730.58   20.96
   0   1  -3  130.43    7.31
   0  -1   3  144.11   10.08
   0   1   3  144.24   10.71
   0  -1  -3  120.95    7.01
   0   1   4 4167.28   62.12
   0  -1   4 4123.45   56.60
   0   1  -4 4159.96   47.72
   0   1  -5  174.45   11.23
   0  -1   5  163.12   10.76
   0   1   5  160.93   13.66
   0  -1   5  183.36   12.86
   0   1  -6 1320.11   35.35
   0  -1   6 1291.59   35.44
   0  -1   6 1343.20   34.02
   0   1   6 1341.48   41.53
   0  -1   7 1791.95   43.47
   0  -1   7 1686.84   41.76
   0   1   7 1753.41   50.30
   0   1  -7 1783.88   43.18
   0  -1   8 3141.11   63.15
   0  -1   8 3265.96   61.95
   0   1   8 3305.87   73.24
   0   1  -8 3259.98   60.69
   0  -1   8 3272.67   62.80
   0   1   9   18.65    9.06
   0  -1   9    5.38    4.01
   0  -1   9    4.73    3.70
   0  -1   9   11.78    4.41
   0  -1  -9    9.73    3.13
   0   1  -9   13.61    5.36
   0   1 -10 2264.70   54.52
   0  -1  10 2166.38   60.16
   0  -1  10 2315.67   56.44
   0  -1  10 2276.96   59.74
   0   1  10 2283.81   67.72
   0  -1 -10 2317.43   42.37
   0  -1 -11   80.33    8.46
   0  -1 -11   59.07   11.83
   0  -1  11   73.41   12.29
   0  -1  11   83.45   11.28
   0   1  11   87.73   14.62
   0   1 -11   88.85   11.65
   0  -1 -12   53.40   11.51
   0  -1 -12   36.32    5.98
   0   1  12   55.14   12.46
   0  -1  12   53.38    8.83
   0   1 -12   52.63    9.15
   0  -1  12   51.25   11.25
   0  -1 -13  268.63   16.32
   0  -1  13  276.52   24.76
   0  -1  13  263.08   23.81
   0   1 -13  203.28   18.39
   0   1  13  256.49   26.15
   0   1  14   22.63   10.11
   0  -1 -14   22.08    5.02
   0  -1  14   12.38    5.24
   0  -1  14   20.07    8.60
   0  -1  15  625.04   41.05
   0  -1 -15  674.14   27.45
   0  -1  15  659.74   41.06
   0   1  15  605.16   43.19
   0  -1 -16    5.46    3.41
   0   1  16    9.10    8.60
   0  -1  16    3.35    6.44
   0  -1  16    3.04    6.55
   0  -1  17   40.59   12.53
   0  -1 -17   40.11    7.02
   0   1  17   35.41   11.95
   0  -1 -18 1137.51   37.30
   0   1  18  994.39   61.18
   0  -1  18  986.91   57.87
   0   1  19   61.50   16.49
   0   1 -19   78.18   13.55
   0  -1  19   66.22   16.66
   0  -1 -19   62.13    9.12
   0   1 -20   14.60    6.39
   0  -1  20   23.67   10.08
   0   1  20   12.55    8.42
   0   1  21  129.00   24.67
   0  -1  21  127.22   22.66
   0   1 -21  162.47   19.40
   0  -1  22  212.50   30.41
   0   1  22  251.34   34.91
   0  -1  23   85.94   20.47
   0   1  23  119.78   24.94
   0   1  24   43.81   16.19
   0  -1  24   29.83   14.46
   0  -1  25   15.13   10.04
   0   2   0 9999.00   82.91
   0  -2   0 9234.63   94.52
   0  -2   1 1967.81   44.79
   0  -2  -1 2047.92   42.36
   0   2   1 2043.85   40.88
   0  -2   1 1912.64   35.89
   0   2  -1 2022.80   36.81
   0   2   2   39.47    6.85
   0   2  -2   36.27    5.24
   0  -2   2   40.94    7.00
   0  -2   2   26.72    4.77
   0   2   2   34.02    5.91
   0  -2  -2   40.77    6.38
   0   2  -3    2.78    2.07
   0   2   3    6.80    3.56
   0   2   3    1.57    3.38
   0  -2  -3    1.18    2.32
   0  -2   3    6.02    3.79
   0  -2   3    5.55    2.94
   0   2   4  388.03   21.53
   0   2  -4  400.05   15.53
   0  -2   4  377.38   21.63
   0  -2  -4  375.64   16.94
   0  -2   4  391.80   15.56
   0  -2   5  177.83   15.39
   0  -2  -5  178.95   11.78
   0  -2   5  173.00   11.27
   0   2  -5  181.77   11.19
   0   2   5  195.11   16.51
   0  -2   6   97.52   12.12
   0  -2   6   87.32    8.48
   0   2  -6   81.42    8.45
   0   2   6   88.64   12.17
   0  -2  -6   89.99    8.39
   0   2  -7  614.64   30.13
   0   2   7  605.84   32.40
   0   2  -7  632.43   24.85
   0  -2   7  601.24   30.23
   0  -2  -7  609.05   21.35
   0  -2   7  586.81   23.62
   0  -2   8 1116.50   42.50
   0   2  -8 1078.26   34.96
   0  -2  -8 1119.21   28.69
   0   2  -8 1120.55   42.01
   0  -2   8 1043.69   34.12
   0   2   8 1071.01   44.71
   0  -2   9  757.42   31.05
   0  -2   9  778.65   36.51
   0   2   9  763.25   39.80
   0  -2  10  350.95   22.48
   0  -2  10  379.31   25.99
   0   2  10  376.95   29.25
   0  -2  11 2077.63   57.54
   0  -2  11 2056.63   60.04
   0  -2  11 2168.15   65.04
   0   2  11 1977.26   69.79
   0  -2 -12  152.13   20.74
   0  -2  12  126.78   16.07
   0   2  12  137.82   19.76
   0  -2  12  151.19   17.41
   0  -2  13   34.95    8.82
   0  -2  13   17.29    7.36
   0   2  13   14.91    7.31
   0  -2 -13   17.57    4.41
   0  -2  14   -0.27    3.98
   0  -2 -14    1.92    2.08
   0  -2  14    3.93    4.69
   0   2 -14   -0.52    4.46
   0  -2  14   -1.26    4.11
   0   2  14   -5.11    7.58
   0  -2  15  293.60   26.23
   0  -2  15  243.16   24.08
   0  -2 -15  266.95   15.98
   0   2 -15  288.97   26.08
   0   2  15  257.76   29.57
   0  -2  15  276.02   26.73
   0  -2  16  134.32   18.50
   0   2  16  104.97   19.96
   0  -2  16  111.26   16.94
   0  -2 -16  119.69   10.86
   0  -2  16  111.02   17.76
   0   2 -16  121.08   17.40
   0   2 -17   27.86    9.52
   0   2  17   21.53   11.59
   0  -2 -17   33.95    5.89
   0  -2  17   22.66    9.40
   0  -2 -18   54.94    6.98
   0   2  18   64.99   16.51
   0   2 -18   70.17   14.29
   0  -2  18   70.04   15.69
   0  -2  19  542.45   43.80
   0   2 -19  616.84   40.85
   0   2  19  535.82   47.97
   0   2  20   48.14   14.79
   0   2 -20   42.22   11.09
   0  -2  20   55.67   14.57
   0   2  21   49.91   15.84
   0   2 -21   40.56   10.99
   0  -2  21   55.64   15.25
   0  -2  22  -21.58   10.32
   0   2  22   31.02   13.60
   0  -2  23    8.27    6.99
   0   2  23   22.14   11.95
   0  -2  24   23.24   11.61
   0   3   0    4.67    4.36
   0   3   0   -1.69    3.78
   0  -3   0    0.46    3.55
   0  -3   0    0.58    2.19
   0   3  -1   15.55    4.70
   0  -3  -1   21.53    5.97
   0  -3   1   20.29    5.00
   0  -3  -1   16.52    5.23
   0   3   1   17.02    5.28
   0  -3   1   21.60    6.51
   0   3   1   10.42    4.20
   0  -3   2   18.97    5.98
   0   3   2   15.25    5.64
   0   3  -2   19.79    4.97
   0  -3   2   19.76    4.86
   0  -3  -2   32.12    6.78
   0  -3  -2   21.15    5.45
   0   3   2   24.86    6.21
   0  -3  -3  878.09   36.07
   0  -3   3  848.79   28.91
   0   3  -3  892.44   26.85
   0  -3   3  918.19   38.81
   0   3   3  851.20   34.72
   0  -3  -3  857.41   33.15
   0   3   3  867.11   32.96
   0  -3   4  342.58   18.56
   0   3   4  316.49   22.25
   0   3   4  331.66   20.05
   0  -3   4  339.13   23.99
   0  -3  -4  330.50   20.20
   0   3  -4  338.31   16.31
   0  -3   5   35.16    6.16
   0   3  -5   40.40    6.09
   0  -3   5   26.65    7.37
   0  -3  -5   31.76    6.06
   0   3   5   31.57    7.92
   0  -3  -6   11.49    4.34
   0  -3   6    6.79    3.45
   0  -3   6   18.95    6.55
   0   3  -6    8.35    2.92
   0   3   6   11.42    6.04
   0  -3   7  346.26   18.70
   0   3   7  360.20   26.82
   0  -3  -7  369.15   20.59
   0   3  -7  368.40   19.03
   0  -3   7  395.55   28.47
   0   3  -8  133.22   12.15
   0  -3   8   99.87   14.78
   0  -3   8  135.79   12.54
   0   3   8  119.20   16.05
   0  -3  -8  109.76   11.15
   0  -3   9  510.09   25.16
   0  -3  -9  529.71   24.26
   0   3   9  495.90   34.20
   0   3  -9  504.28   25.13
   0   3  -9  513.53   34.04
   0  -3   9  539.00   34.46
   0   3 -10   70.60   12.64
   0  -3  10   82.62   14.32
   0  -3  10  104.90   12.06
   0   3  10  113.21   17.08
   0   3 -10   88.49   11.72
   0  -3 -10   78.07    9.39
   0   3 -11  532.81   35.92
   0  -3  11  517.80   35.77
   0  -3  11  474.98   26.62
   0  -3 -11  532.66   24.17
   0   3  11  462.63   35.52
   0  -3  12  219.21   23.49
   0  -3 -12  238.95   15.97
   0   3 -12  261.95   25.69
   0   3  13  210.33   26.06
   0   3 -13  232.75   25.18
   0  -3  13  149.03   19.98
   0  -3 -13  149.96   12.60
   0  -3  14  679.12   39.39
   0   3 -14  748.79   45.25
   0   3  14  711.47   49.02
   0  -3  15  506.19   35.48
   0   3  15  525.87   43.87
   0  -3  15  369.43   28.17
   0  -3 -15  420.32   20.32
   0   3 -15  578.85   40.62
   0  -3  16   -4.05    3.90
   0  -3  16    2.36    7.58
   0   3  16   -3.03    6.16
   0   3 -16   -6.47    5.45
   0  -3 -16    3.73    2.21
   0  -3 -16    2.79    2.33
   0   3  17   10.41    8.91
   0  -3  17    5.94    6.83
   0  -3 -17    4.03    2.09
   0   3 -17    0.55    5.81
   0   3 -18    4.93    4.27
   0  -3  18    6.09    7.13
   0   3  18    1.12    7.04
   0  -3  19    8.16    6.17
   0   3 -19    4.99    6.21
   0   3  19    4.97    6.68
   0   3  20   63.63   18.79
   0  -3  20   46.01   12.70
   0   3 -20   78.33   16.57
   0  -3  21   76.66   17.29
   0   3 -21   88.70   17.06
   0   3  21  113.81   24.81
   0  -3  22   92.52   20.47
   0   3 -22   85.58   17.91
   0   3  22   69.87   20.35
   0  -3  23   72.66   18.13
   0   4   0 1722.50   50.36
   0  -4   0 1921.09   62.01
   0  -4   0 1753.42   51.77
   0   4   0 1927.44   60.29
   0   4  -1   34.06    7.72
   0  -4   1   26.57    6.39
   0   4  -1   34.55    9.11
   0   4   1   36.13    8.43
   0  -4  -1   33.40    9.05
   0  -4  -1   26.45    7.38
   0   4   1   30.27    8.26
   0  -4   1   44.23    9.96
   0   4  -2   10.24    4.63
   0   4   2    7.98    4.97
   0  -4   2    9.23    4.42
   0  -4   2    9.60    5.06
   0  -4  -2    3.26    3.22
   0  -4  -2   13.02    4.51
   0   4   2    6.21    4.47
   0   4   3    2.51    3.91
   0  -4   3   -0.50    2.50
   0   4   3    3.76    3.18
   0  -4   3    3.99    4.78
   0  -4  -3    3.49    5.10
   0   4  -3    4.82    3.65
   0   4  -4   87.09    9.66
   0  -4   4   82.80   13.83
   0  -4  -4   84.33   12.90
   0   4   4   92.80   13.00
   0  -4   4   89.67   11.00
   0   4   4  103.63   14.62
   0  -4  -5  255.57   23.98
   0  -4  -5  258.44   21.15
   0  -4   5  255.12   24.80
   0   4  -5  209.69   14.56
   0  -4   5  263.25   18.90
   0   4   5  227.37   21.78
   0   4   6  439.51   31.29
   0  -4  -6  430.63   27.28
   0  -4  -6  477.14   33.85
   0   4  -6  434.04   21.27
   0  -4   6  458.54   33.53
   0  -4   6  490.40   25.94
   0  -4   7    9.80    4.35
   0  -4   7    1.87    3.28
   0  -4  -7   21.53    9.86
   0   4  -7   13.15    4.18
   0   4   7    7.56    6.79
   0  -4  -7   14.03    4.91
   0   4  -7    6.60    5.30
   0  -4   8  333.45   30.05
   0   4  -8  299.17   18.90
   0  -4   8  314.04   21.65
   0   4   8  279.80   26.83
   0  -4  -8  324.99   30.10
   0  -4  -8  313.57   22.65
   0   4  -8  333.17   29.39
   0  -4   9   50.07    8.99
   0   4  -9   75.68   14.07
   0   4   9   44.82   11.63
   0   4  -9   58.06    8.77
   0  -4  -9   61.21    9.92
   0  -4 -10  221.75   18.43
   0   4 -10  244.56   18.48
   0   4  10  205.16   24.21
   0   4  11  184.87   24.29
   0  -4  11  181.18   16.50
   0   4 -11  158.36   21.74
   0   4 -11  157.72   15.74
   0  -4 -11  120.59   13.50
   0   4 -12  144.98   21.22
   0   4  12  160.61   23.59
   0  -4 -12  106.03   12.59
   0  -4  13   28.48    7.39
   0  -4 -13   42.50    7.99
   0   4  13   58.72   16.51
   0   4 -13   65.06   14.23
   0  -4 -14   25.68    5.90
   0   4 -14   36.44   11.85
   0   4  14   25.43    9.96
   0  -4  15    4.37    5.16
   0   4  15    0.64    7.13
   0   4 -15    9.17    7.27
   0   4  16  330.43   36.85
   0  -4  16  265.38   26.88
   0   4 -16  333.03   34.13
   0  -4  17    2.78    4.47
   0   4 -17    0.99    4.72
   0   4  17   -1.30    7.98
   0  -4  18   80.90   15.86
   0   4  18  101.25   21.84
   0   4 -18  124.05   22.05
   0   4 -19   23.68   10.29
   0  -4  19   22.93    9.30
   0   4  19   19.52   10.64
   0  -4  20   96.33   19.21
   0   4  20   74.90   19.41
   0   4 -20  107.15   20.31
   0   4 -21    2.42    5.16
   0   4 -22  151.51   25.31
   0   5   0    0.69    4.34
   0   5   0   -1.26    4.84
   0  -5   0    3.87    7.56
   0  -5   1  344.93   30.35
   0  -5  -1  314.22   28.19
   0   5  -1  319.23   23.98
   0   5  -1  355.92   30.05
   0   5   1  311.81   25.14
   0   5   1  351.19   29.07
   0  -5  -2    9.68    5.50
   0   5  -2    1.54    5.29
   0  -5  -2    2.89    4.23
   0   5   2    0.96    3.77
   0   5   2    2.11    4.59
   0   5  -2    7.43    5.20
   0  -5   2    1.69    3.57
   0  -5  -3   -6.09    4.76
   0   5  -3    0.85    2.80
   0  -5  -3    2.22    4.75
   0   5   3    7.59    6.34
   0   5  -3   -1.59    5.47
   0   5   3   -0.46    4.01
   0   5  -4  917.61   35.38
   0   5   4  874.69   45.36
   0   5  -4  881.00   49.11
   0   5   4  882.96   43.91
   0  -5  -4  891.93   46.13
   0  -5  -4  918.32   48.04
   0  -5  -5  300.82   26.95
   0   5  -5  267.11   18.52
   0   5   5  245.62   24.82
   0   5  -5  320.48   30.42
   0  -5  -5  311.67   28.98
   0   5  -6   11.59    8.03
   0   5   6    4.46    6.08
   0  -5  -6    5.52    5.19
   0  -5  -6    5.57    4.98
   0   5  -6    4.52    3.56
   0  -5   6   -1.71    2.48
   0   5   7  307.60   29.54
   0   5  -7  343.11   32.36
   0   5  -7  298.09   19.49
   0  -5  -7  246.86   23.53
   0   5  -8  243.70   28.25
   0   5   8  216.68   25.58
   0   5  -8  199.48   16.23
   0  -5  -8  149.45   18.59
   0  -5  -9  197.63   21.01
   0   5  -9  281.99   19.52
   0   5   9  256.16   28.73
   0   5  -9  245.38   28.43
   0   5 -10  304.88   21.03
   0   5  10  289.50   31.39
   0   5 -10  350.85   34.37
   0   5  11    2.76    6.26
   0   5 -11    0.29    3.08
   0   5 -11   -4.79    5.85
   0  -5 -11   -5.05    3.89
   0   5 -12   46.71   13.87
   0  -5 -12   43.57    9.49
   0   5  12   57.35   15.56
   0   5 -12   52.90    9.78
   0   5  13   30.82   12.43
   0  -5  13   22.17    7.19
   0   5 -13   27.31   12.03
   0   5 -14  278.36   32.82
   0   5  14  285.85   34.75
   0   5 -15   11.02    8.74
   0   5  15   14.93    8.58
   0   5 -16   -4.70    6.70
   0  -5  16    4.79    4.55
   0   5  16   -6.08    7.99
   0  -5  17   13.73    6.96
   0   5 -17   28.78   11.75
   0   5  17   18.32   10.79
   0   5 -18   44.09   14.71
   0   5  18   31.18   13.20
   0   5 -19    9.91    5.63
   0   5  19    6.25    9.36
   0   5 -20   -0.57    6.77
   0   5 -21    7.09    7.13
   0   6   0  234.59   27.38
   0   6   0  228.56   22.91
   0  -6   0  183.66   21.42
   0   6  -1  698.09   46.57
   0   6   1  671.19   44.73
   0  -6   1  630.41   38.42
   0   6   1  630.27   39.12
   0   6  -1  619.76   37.09
   0  -6   2   20.78    7.69
   0   6  -2   14.09    6.03
   0   6   2   16.99    8.26
   0   6   2   29.46    9.61
   0  -6  -2   26.40   10.23
   0   6  -2   14.38    8.37
   0  -6   3   52.99   11.44
   0   6  -3   43.12    9.43
   0   6   3   47.43   11.74
   0   6  -3   54.62   14.08
   0   6   3   43.77   12.05
   0   6   4   -0.15    4.55
   0   6   4    4.64    4.95
   0   6  -4    2.02    3.55
   0  -6   4   -1.41    4.39
   0   6  -4   -6.27    5.96
   0   6   5  258.37   27.62
   0   6  -5  261.66   30.01
   0   6  -5  252.77   20.10
   0   6  -6  528.21   43.22
   0   6   6  486.99   39.09
   0   6  -6  544.41   28.68
   0   6  -7    3.93    7.70
   0   6   7   10.15    7.86
   0   6  -7    1.00    3.34
   0   6   8  409.22   37.44
   0   6  -8  431.99   39.97
   0   6  -8  442.54   25.42
   0   6   9   99.67   19.42
   0   6  -9   85.26   11.48
   0   6  -9   82.39   18.57
   0  -6  -9  121.78   18.89
   0   6 -10   60.63   16.73
   0   6  10   72.48   16.56
   0  -6  10   60.88   11.42
   0   6 -10   60.60    9.59
   0   6 -11  286.55   20.69
   0   6  11  275.64   33.52
   0   6 -11  342.55   37.65
   0   6 -12   26.84   10.56
   0   6  12   55.07   16.87
   0   6  13    7.22    8.24
   0   6 -13   12.36    9.36
   0   6  14   53.67   17.96
   0   6 -14   36.86   14.66
   0   6  15   14.26    9.80
   0   6 -15   22.43   10.31
   0   6  16   -1.62    5.28
   0   6 -16   10.76    8.10
   0   6 -17   60.81   17.96
   0   6  17   76.46   20.49
   0   6 -18  122.45   24.60
   0   6 -19   33.09   13.89
   0   7   0   -3.53    5.94
   0   7   0    4.01    6.64
   0   7  -1    5.39    8.60
   0   7   1    5.68    7.30
   0   7  -1   -0.74    5.54
   0   7   1   13.72    8.80
   0   7   2  134.05   20.43
   0   7   2  168.53   24.95
   0   7  -2  107.12   20.51
   0   7  -2  128.20   16.91
   0   7   3  143.51   22.19
   0   7   3  138.99   21.26
   0   7  -3  145.99   24.76
   0   7  -3  120.93   15.91
   0   7  -4   10.11    6.34
   0   7  -4    1.49    3.32
   0   7   4   -1.20    5.55
   0   7  -5  261.24   32.75
   0   7  -5  229.95   20.43
   0   7   5  218.66   27.14
   0   7   6   28.64   10.56
   0   7  -6   34.34    8.05
   0   7  -6   36.81   12.68
   0   7  -7   38.65    8.35
   0   7  -7   42.17   13.16
   0   7   7   34.13   11.93
   0   7   8   -4.88    6.90
   0   7  -8   -2.13    5.79
   0   7   9   51.03   15.16
   0   7  -9   47.36   16.55
   0   7 -10  221.26   32.35
   0   7  10  212.58   30.55
   0   7  11  205.18   31.17
   0   7 -11  221.42   32.96
   0   7 -12  211.31   32.80
   0   7  12  189.03   29.98
   0   7 -13    9.76    8.75
   0   7  13   11.92    9.45
   0   7  14    0.64    5.62
   0   7 -14   16.87   13.37
   0   8   0    0.54    6.80
   0   8   0    5.73    4.92
   0   8   1  161.49   26.41
   0   8  -1  116.75   22.33
   0   8   1  125.85   20.84
   0   8  -1  112.43   17.06
   0   8   2  181.31   27.29
   0   8   2  145.52   22.97
   0   8  -2  197.93   30.14
   0   8  -3   48.16   15.34
   0   8   3   24.14   10.70
   0   8   4   -9.47    7.70
   0   8  -4   20.86   10.35
   0   8   5   -8.74   10.02
   0   8  -5   -2.85    9.72
   0   8   6   21.22   10.76
   0   8  -6   15.27    7.28
   0   8   7    9.15   10.18
   0   8  -7    9.36    7.80
   0   8  -8  125.17   24.95
   0   8   8  129.34   24.61
   0   8   9   -0.35    8.75
   0   8  -9   -1.97    8.40
   0   8  10  279.21   36.67
   0   8  11   51.10   16.23
   0   9   0    5.30    7.25
   0   9   2  162.67   25.80
   0   9   3   20.67   10.09
   0   9   4   23.98   13.58
   0   9   5   -1.78    7.48
   0   9   6    6.68    6.66
   0   9   7  -11.43    9.00
   0   9   8  106.59   23.05
  -1   0  24  -12.12    8.52
  -1   0  23   83.50   20.75
  -1   0  22    9.04    8.71
  -1   0  21   42.48   15.76
  -1   0  20    4.68    7.33
  -1   0  19   92.61   19.61
   1   0 -19  157.20   12.14
  -1   0  18   -1.57    9.92
   1   0 -18    1.48    1.95
  -1   0  17 1174.91   64.40
   1   0 -17 1428.24   36.25
  -1   0  16   17.49   10.48
   1   0 -16    0.39    2.34
   1   0 -15 1445.90   35.20
  -1   0  15 1251.30   61.73
  -1   0  14    6.91    5.68
   1   0 -14    2.36    2.41
  -1   0  14    1.01    4.74
   1   0 -13  270.67   14.33
  -1   0  13  306.26   27.72
  -1   0  13  301.45   27.92
  -1   0  12   -1.35    4.41
   1   0 -12   -1.48    1.99
  -1   0  12   -1.36    5.40
  -1   0  11  503.43   18.46
   1   0 -11  493.18   17.78
  -1   0  11  509.05   33.06
  -1   0  10    3.16    1.97
   1   0 -10    0.42    1.39
  -1   0  10   -1.02    4.05
   1   0  -9 3702.73   44.15
  -1   0   9 3540.95   43.90
   1   0  -8    1.15    4.13
  -1   0   8    1.68    1.55
   1   0  -8    0.22    1.59
  -1   0   7  281.74   11.05
   1   0  -7  255.82   19.26
  -1   0   6   -0.06    1.40
   1   0  -6    2.91    3.62
  -1   0   5 2274.75   29.36
   1   0  -5 2371.02   50.64
   1   0  -4    2.07    3.87
   1   0  -3 7822.85   78.38
   1   0  -2    6.16    3.63
   1   0  -1 1646.94   30.61
  -1   0  -2    0.38    2.06
   1   0   2    2.58    2.38
   1   0   3 1919.99   34.27
  -1   0  -3 1948.80   34.24
  -1   0  -4   -1.89    2.99
   1   0   4    1.46    2.93
  -1   0  -5  150.68   11.88
   1   0   5  139.43   11.30
   1   0   6   -0.61    2.97
  -1   0  -6    3.48    3.49
  -1   0  -7 4146.11   71.13
   1   0   7 3938.66   68.75
  -1   0  -7 4039.72   71.90
  -1   0  -8    0.84    3.26
  -1   0  -8   -2.21    4.79
   1   0   8   -2.47    4.71
   1   0   9  182.43   17.13
  -1   0  -9  217.82   18.51
  -1   0  -9  215.20   18.16
  -1   0 -10   -0.05    4.01
   1   0  10    7.68    5.04
  -1   0 -10   -0.88    3.47
   1   0  11 1322.61   50.34
  -1   0 -11 1416.00   48.95
  -1   0 -11 1449.16   53.04
  -1   0 -12    8.85    5.97
   1   0  12    4.47    6.45
   1   0  13 2828.43   80.81
   1   0  14    9.06   10.19
   1   0  15 1679.79   67.61
   1   0  16    0.96    8.17
  -1   0 -16    6.66    6.50
  -1   0 -17    0.80    3.59
   1   0  17   11.90    7.97
   1   0  18   -8.94    7.08
  -1   0 -18   -0.51    3.43
   1   0  19   -2.69    5.77
  -1   0 -19   19.14    7.70
  -1   0 -20   -0.90    2.77
   1   0  20   -9.86    7.78
   1   0  21  405.19   40.75
   1   0  22   -6.65    7.76
   1   0  23   -6.23    6.99
   1   0  24   -7.17    9.15
   1   0  25   69.94   19.49
  -1   1  24  -30.75   13.91
  -1  -1  24   33.96   14.17
  -1  -1  23  195.96   31.41
  -1   1  23  206.19   33.17
  -1  -1  22  130.99   25.50
  -1   1  22  105.77   23.98
  -1  -1  21  234.20   32.25
  -1   1  21  201.92   31.17
  -1   1  20  142.29   25.76
  -1  -1  20  140.30   24.16
  -1   1  19   34.67   13.39
  -1  -1  19   57.48   15.94
  -1   1  18   34.02   12.67
  -1  -1  18   36.21   11.78
   1   1 -18    4.70    4.07
  -1  -1  17   -1.93    5.14
   1   1 -17   -2.64    2.69
   1   1 -16   43.88    8.35
  -1  -1  16   37.00   12.07
  -1   1  16   36.97   11.94
  -1  -1  16   46.35    8.90
   1   1 -15    0.52    2.67
  -1  -1  15   -1.68    3.21
  -1   1  15    2.81    7.42
  -1  -1  15   -1.65    5.55
  -1  -1  14   18.94    8.88
  -1   1  14   16.29   10.28
   1   1 -14   28.82    6.76
  -1  -1  14   15.65    5.28
  -1  -1  14   11.18    6.79
   1   1 -13  608.78   28.52
  -1  -1  13  511.95   35.74
  -1   1  13  586.07   40.06
  -1   1  13  579.86   39.55
  -1  -1  13  564.33   27.73
  -1  -1  13  600.49   37.51
  -1  -1  12  112.32   12.16
   1   1 -12  136.55   13.13
  -1  -1  12  119.03   16.36
  -1   1  12  126.35   18.55
   1   1 -11 2251.57   50.98
   1   1 -11 2135.26   65.90
  -1   1  11 2159.06   70.57
  -1  -1  11 2186.29   51.38
  -1   1  10  662.55   37.64
   1   1 -10  738.84   36.92
  -1  -1  10  750.12   29.28
   1   1 -10  727.75   28.36
  -1   1   9  456.07   29.46
   1   1  -9  447.89   21.59
  -1  -1   9  426.93   21.18
   1   1  -9  455.28   27.73
  -1  -1   9  474.63   27.89
   1   1  -8  315.95   17.66
  -1   1   8  309.90   23.32
  -1  -1   8  301.95   17.31
   1   1  -8  285.02   20.98
  -1   1   7  251.78   19.77
   1   1  -7  260.08   15.41
  -1  -1   7  237.95   14.89
   1   1  -7  225.90   17.71
  -1   1   6  664.79   30.32
  -1  -1   6  635.97   23.51
   1   1  -6  646.62   27.99
   1   1  -6  667.33   24.21
  -1   1   5 4163.10   69.74
   1   1  -5 4163.33   58.34
   1   1  -5 4180.10   66.94
  -1  -1   5 4014.65   57.35
  -1   1   4    6.40    3.79
   1   1  -4    8.36    3.96
  -1   1   4    5.93    2.04
  -1  -1   4    2.78    2.57
   1  -1  -3 7334.70   78.22
   1   1  -3 7516.01   80.11
  -1  -1   3 7120.47   73.61
  -1   1   3 7119.68   56.70
  -1   1   3 7466.89   76.74
  -1   1   2 6176.65   63.91
  -1  -1   2 6010.21   66.84
  -1   1   2 6088.95   58.43
   1  -1  -2 6007.70   63.64
  -1   1   1 6316.74   56.26
   1   1  -1 6478.84   71.40
   1  -1  -1 6249.23   56.12
   1  -1  -1 6377.35   64.78
   1  -1   0   12.36    2.66
   1  -1   0   14.16    4.89
  -1   1   0    8.95    2.43
   1   1   0   10.76    3.74
   1  -1   1 3649.31   56.23
   1  -1   1 3743.24   31.08
   1   1   1 3770.07   55.53
   1  -1   2   20.35    5.11
   1   1   2   14.50    4.72
   1  -1   3 1403.49   38.69
  -1   1  -3 1444.84   19.53
   1  -1   3 1397.85   18.76
   1   1   3 1391.24   36.75
   1  -1   4    4.18    3.25
   1   1   4    3.22    3.36
  -1   1  -4    2.01    1.90
   1  -1   4    4.02    2.05
  -1   1  -5 2142.23   35.72
   1   1   5 2092.36   50.16
   1  -1   5 2143.42   35.42
   1   1   6 2061.21   52.87
   1  -1   6 2126.25   40.51
  -1  -1  -6 2203.37   55.42
  -1   1  -7  199.52   17.38
   1  -1   7  176.05   13.09
  -1  -1  -7  189.91   17.42
   1   1   7  165.15   15.78
  -1   1  -8   12.74    4.47
   1   1   8    8.92    5.39
  -1  -1  -8    3.01    3.12
   1  -1   8   11.11    4.48
   1   1   9  227.36   20.78
  -1  -1  -9  303.64   24.30
  -1   1  -9  254.26   21.08
   1  -1   9  278.60   19.34
  -1  -1 -10  583.24   34.76
   1   1  10  527.31   33.10
   1  -1  10  556.46   29.13
  -1  -1 -11   89.70   14.48
   1  -1  11   99.73   13.15
   1  -1  11   75.71   11.58
   1   1  11   91.54   14.70
  -1  -1 -12    3.04    4.04
   1   1  12   -0.14    4.19
  -1  -1 -12    3.02    4.71
   1  -1  12    6.80    5.43
   1   1  13  325.16   29.53
   1  -1  13  334.48   26.90
  -1  -1 -13  341.79   30.32
   1  -1  14  531.50   35.12
  -1   1 -14  522.91   34.68
   1  -1  14  512.88   34.22
   1   1  14  461.93   36.05
   1  -1  15   11.50    5.14
   1  -1  15    9.74    6.84
   1   1  15   15.58    9.14
  -1   1 -15    9.45    6.40
   1  -1  16    0.05    4.08
   1   1  16    3.47    7.12
  -1   1 -16    7.67    6.49
   1  -1  16   -1.78    4.53
   1  -1  17  374.94   33.13
   1   1  17  365.80   35.61
  -1   1 -17  391.11   32.13
   1   1  18  251.63   30.52
   1  -1  18  255.16   28.66
  -1   1 -18  307.16   28.92
  -1   1 -19    4.70    4.10
  -1  -1 -19   13.50    5.99
   1   1  19   14.30    8.45
   1  -1  19   -1.56    5.82
  -1  -1 -20   48.47   10.77
   1  -1  20   27.85   11.33
  -1   1 -20   56.86   12.89
   1   1  20   58.80   16.17
   1   1  21    6.05    9.16
  -1   1 -21    6.95    6.20
   1  -1  21   -5.16    5.96
   1  -1  22   50.65   14.80
   1   1  22   48.86   16.52
   1  -1  23  237.79   32.68
   1   1  23  208.34   31.82
   1   1  24   48.81   16.34
   1  -1  24   41.33   14.51
  -1  -2  25  -12.09   12.00
  -1  -2  24   65.54   18.71
  -1  -2  23   -5.84    7.34
  -1   2  23    7.15    9.69
  -1   2  22  102.19   23.75
  -1  -2  22   57.56   16.76
  -1   2  21   25.36   14.26
  -1  -2  21   63.64   17.95
  -1  -2  20  372.46   38.99
  -1   2  20  403.28   43.79
   1   2 -20  332.33   28.06
  -1  -2  19   26.15   12.21
   1   2 -19   37.87   10.19
  -1   2  19   58.04   16.52
  -1   2  18   42.22   14.59
  -1  -2  18   36.47   11.84
  -1  -2  18   33.36    8.70
   1   2 -18   60.91   12.23
  -1   2  17  211.70   29.36
  -1  -2  17  210.98   21.83
   1   2 -17  239.07   22.81
  -1  -2  17  195.61   25.94
  -1  -2  16  694.91   38.94
  -1   2  16  653.33   48.96
  -1  -2  16  684.98   45.89
  -1  -2  15   96.46   16.26
  -1  -2  15   77.40   12.86
  -1   2  15   91.71   17.97
  -1  -2  14  310.82   25.07
  -1   2  14  274.58   29.73
  -1  -2  14  327.22   28.59
  -1   2  13  167.95   22.34
   1   2 -13  205.37   22.12
  -1  -2  13  149.24   16.82
  -1  -2  13  172.96   20.14
  -1   2  12  147.07   20.46
  -1  -2  12  144.23   16.67
  -1  -2  12  172.88   19.62
   1   2 -12  161.49   18.84
  -1   2  12  140.40   19.69
  -1  -2  11   -0.41    2.96
  -1   2  11    5.39    5.45
   1   2 -11   -0.88    3.76
  -1  -2  10  465.56   27.56
   1   2 -10  508.37   30.67
   1   2 -10  424.17   26.05
  -1   2  10  501.95   34.19
   1   2  -9    3.70    3.97
  -1  -2   9    4.08    3.05
  -1   2   9    3.33    5.11
  -1  -2   9    0.67    2.79
   1   2  -9    0.13    2.94
  -1  -2   8 1043.23   39.22
   1   2  -8 1059.31   39.28
  -1   2   8 1044.67   44.93
  -1  -2   8 1085.92   40.18
   1   2  -8 1049.35   39.94
  -1   2   7   12.05    5.98
   1   2  -7   12.61    5.27
  -1  -2   7   18.28    5.86
   1  -2  -7   10.90    2.28
   1   2  -7   14.47    6.08
  -1  -2   7   13.41    4.13
   1   2  -6  316.12   20.69
  -1   2   6  323.79   22.70
  -1   2   6  301.51   12.10
   1   2  -6  290.52   19.55
  -1  -2   6  285.54   19.31
  -1   2   6  301.61   21.88
   1  -2  -6  311.54   12.81
  -1  -2   6  294.94   20.27
  -1   2   5  722.22   20.75
  -1  -2   5  777.05   31.82
   1  -2  -5  791.14   22.43
  -1  -2   5  782.96   31.11
  -1   2   5  801.15   33.12
   1   2  -5  799.81   30.71
  -1  -2   4 1117.78   37.57
  -1   2   4 1090.93   27.65
   1  -2  -4 1135.65   28.71
   1  -2  -4 1150.47   37.19
  -1   2   4 1088.69   36.20
  -1  -2   4 1129.00   35.75
   1   2  -4 1103.53   35.02
  -1   2   3    6.65    2.98
   1  -2  -3    5.56    2.50
  -1  -2   3    5.14    3.08
  -1   2   3    2.73    2.35
   1   2  -3    4.37    3.41
   1  -2  -3    5.97    2.69
  -1   2   2  534.83   20.92
   1   2  -2  523.18   23.85
   1  -2  -2  524.48   22.19
  -1   2   2  551.98   21.35
  -1   2   2  489.13   21.00
  -1  -2   2  534.54   25.10
   1  -2  -2  514.22   20.64
  -1   2   1 1193.92   27.85
   1  -2  -1 1126.10   27.09
  -1   2   1 1220.34   27.68
  -1  -2   1 1074.02   35.33
  -1   2   1 1078.04   32.89
   1  -2  -1 1125.59   33.88
   1   2  -1 1081.99   34.77
  -1   2   0 3022.34   57.51
  -1  -2   0 2988.59   58.44
  -1   2   0 3055.71   37.03
   1  -2   0 2937.20   37.35
  -1   2   0 3079.08   37.28
   1  -2   0 2950.74   56.97
   1   2   0 2929.21   57.44
  -1   2  -1   18.35    2.42
   1  -2   1   19.37    2.55
  -1   2  -1   17.87    2.36
   1  -2   1   19.92    5.63
   1   2   1   16.05    5.78
   1  -2   2 7797.14  100.95
   1   2   2 7425.19   94.58
   1  -2   3  166.55   15.65
   1   2   3  163.02   15.02
   1  -2   4    2.14    3.13
   1   2   4    0.93    4.11
   1  -2   5 1579.51   25.47
   1   2   5 1642.20   50.82
   1  -2   5 1525.63   21.49
   1  -2   5 1609.70   51.35
   1  -2   6   -2.05    1.88
   1  -2   6    0.17    1.49
   1  -2   6    0.55    2.84
   1   2   6    2.36    4.00
   1  -2   7 3063.06   47.96
   1  -2   7 3104.03   75.61
   1   2   7 2985.61   73.96
   1  -2   7 2884.04   43.50
   1  -2   8   18.28    7.42
   1  -2   8   10.01    3.40
   1   2   8   14.94    7.80
   1  -2   8   10.52    3.87
   1   2   9    4.57    4.30
  -1  -2  -9    3.99    4.42
   1  -2   9    8.84    5.66
   1  -2   9    5.77    3.08
   1  -2   9    4.30    2.35
   1   2  10  399.22   30.66
   1  -2  10  403.02   30.14
   1  -2  10  379.02   21.40
   1  -2  10  409.65   23.46
  -1  -2 -10  472.19   34.11
   1  -2  11   99.71   11.99
  -1   2 -11   83.04   14.05
   1  -2  11   81.99   14.16
   1   2  11   90.77   15.09
  -1  -2 -11   91.92   16.12
   1  -2  11   88.96   11.97
   1  -2  12  484.00   28.91
   1   2  12  435.46   34.26
   1  -2  12  464.31   27.00
   1  -2  12  494.75   35.10
  -1   2 -12  488.44   33.94
   1   2  13   14.34    7.39
   1  -2  13    2.01    1.90
   1  -2  13   16.18    6.98
  -1   2 -13   24.04    8.63
   1   2  14  406.76   35.58
   1  -2  14  456.90   31.05
  -1   2 -14  435.96   33.59
  -1   2 -15  296.17   28.52
   1   2  15  249.48   28.75
   1  -2  15  266.20   24.87
   1  -2  15  243.68   22.66
   1  -2  16    4.25    5.00
   1  -2  16    0.79    2.45
   1   2  16    2.44    5.96
  -1   2 -16   -0.73    5.79
   1  -2  17    5.73    3.90
   1   2  17   -3.20    6.05
   1  -2  17    8.75    5.60
   1  -2  18   47.78   12.52
   1   2  18   25.18   10.36
  -1   2 -18   29.49   10.18
   1   2  19   51.09   14.80
   1  -2  19   19.27    8.48
  -1   2 -19   61.94   14.41
   1   2  20  286.60   35.61
  -1   2 -20  351.50   34.33
  -1   2 -21  -12.26    7.38
   1  -2  21   -7.59    6.42
   1   2  21  -11.22    8.72
   1   2  22  141.83   26.94
  -1   2 -22  211.61   28.04
   1  -2  22  196.28   27.54
   1   2  23   -2.14    7.21
  -1  -3  24   -1.02    5.59
  -1  -3  23    7.31    7.32
  -1   3  22   42.83   14.72
  -1  -3  22   43.45   14.53
  -1   3  21  250.48   36.15
   1   3 -21  201.04   25.13
  -1  -3  21  166.01   26.48
  -1   3  20  322.29   40.06
  -1  -3  20  294.64   34.32
   1   3 -20  266.20   28.45
  -1   3  19    0.09    5.63
  -1  -3  19   -1.13    5.39
   1   3 -19   13.27    7.03
  -1   3  18    2.43    8.04
  -1  -3  18   10.14    6.86
   1   3 -18    6.72    5.39
   1   3 -17   75.17   15.11
  -1  -3  17   51.99   13.47
  -1   3  17   47.95   14.74
  -1   3  16  108.78   20.95
   1   3 -16  119.37   17.99
  -1  -3  15    7.75    5.28
   1   3 -15   -1.92    4.22
  -1   3  15    2.76    7.01
  -1  -3  15    5.47    5.37
  -1   3  14   28.89   11.80
   1   3 -14   20.91    8.30
  -1  -3  14   25.09    7.82
  -1  -3  14   21.35    7.07
   1   3 -14   33.89    9.98
   1   3 -13  172.77   20.29
  -1  -3  13  155.69   19.69
   1   3 -13  132.63   17.93
  -1   3  13  145.22   22.18
  -1  -3  13  152.69   18.14
   1   3 -12  373.03   28.48
   1   3 -12  412.27   30.93
  -1   3  12  378.56   33.83
  -1  -3  12  370.48   29.69
  -1  -3  12  410.31   29.46
   1  -3 -11    0.11    1.07
   1  -3 -11   -3.02    3.88
  -1   3  11    1.68    4.32
  -1  -3  11    2.82    3.75
   1   3 -11    4.09    4.46
   1   3 -11   -1.79    3.84
   1  -3 -10  105.90    8.25
   1  -3 -10   96.04   15.72
  -1   3  10   97.57   16.35
   1   3 -10  117.15   15.99
  -1  -3  10  100.34   14.81
   1   3 -10  113.65   14.68
   1  -3  -9   53.40   11.80
   1   3  -9   34.93    8.22
  -1   3   9   34.93    9.50
   1  -3  -9   53.42    6.50
  -1  -3   9   46.35   10.06
   1  -3  -8 1228.83   52.76
  -1   3   8 1228.02   51.73
  -1  -3   8 1255.67   50.20
   1  -3  -8 1227.84   32.34
  -1  -3   8 1240.00   45.03
   1   3  -8 1150.35   43.21
  -1   3   7   18.05    6.85
  -1  -3   7   25.52    7.30
  -1  -3   7   14.68    5.24
   1  -3  -7   19.14    4.62
   1   3  -7   12.40    5.21
  -1   3   7   10.42    3.24
  -1   3   6  518.67   22.48
   1  -3  -6  550.88   23.93
  -1   3   6  519.48   30.23
  -1  -3   6  566.67   32.69
  -1  -3   6  530.61   29.02
   1   3  -6  529.66   27.59
   1   3  -5  129.99   13.61
   1  -3  -5  146.20   15.81
  -1   3   5  128.60   14.33
   1  -3  -5  160.29   13.66
  -1   3   5  158.36   13.15
  -1  -3   5  133.38   14.69
  -1  -3   5  169.28   17.71
  -1   3   4  326.99   21.69
  -1  -3   4  318.55   21.92
   1  -3  -4  315.34   21.64
  -1   3   4  340.11   19.69
  -1  -3   4  327.73   24.01
   1   3  -4  290.35   20.23
   1  -3  -4  322.05   19.78
  -1  -3   3  821.97   34.75
   1   3  -3  767.92   32.38
   1  -3  -3  802.14   32.21
   1  -3  -3  797.14   32.16
  -1   3   3  761.57   30.55
  -1  -3   3  823.46   37.42
  -1   3   3  861.95   32.74
   1   3  -2 2805.64   63.07
   1  -3  -2 2870.80   57.62
  -1   3   2 2810.63   54.43
  -1  -3   2 2977.89   65.76
  -1  -3   2 2995.44   70.36
  -1   3   2 3002.09   63.43
   1  -3  -2 2866.13   62.95
  -1  -3   1  723.43   34.12
   1  -3  -1  733.95   26.81
  -1   3   1  765.04   32.99
  -1   3   1  737.65   25.75
   1  -3  -1  743.59   32.88
   1   3  -1  661.86   31.07
   1  -3   0    1.75    2.91
   1  -3   0    7.47    4.57
  -1  -3   0    7.64    4.19
  -1   3   0    0.32    3.72
   1   3   0    8.12    4.64
  -1   3   0    0.78    2.16
   1   3   1  658.80   32.27
  -1   3  -1  696.06   20.56
  -1   3  -1  649.80   32.36
  -1  -3  -1  634.33   31.84
   1  -3   1  650.05   33.00
   1  -3   1  652.23   21.09
   1  -3   2  235.16   11.33
  -1   3  -2  239.09   11.02
   1  -3   2  261.09   21.55
   1   3   2  240.71   19.86
  -1  -3  -2  229.11   19.13
   1   3   3  169.47   17.07
   1  -3   3  168.18    8.79
   1  -3   3  180.22   18.38
  -1  -3  -3  175.91   16.54
  -1  -3  -4   63.43   10.17
   1  -3   4   55.66   10.52
   1  -3   4   57.25    5.21
   1   3   4   60.93   11.23
   1   3   5   42.91    9.27
   1  -3   5   54.53   10.67
  -1  -3  -5   57.65    9.66
   1  -3   5   52.78    5.09
   1  -3   6  292.32   12.96
  -1  -3  -6  311.77   22.14
   1   3   6  272.73   23.97
  -1  -3  -7  891.54   37.83
   1  -3   7  972.81   47.52
   1   3   7  908.15   44.91
   1  -3   8  291.85   27.04
   1  -3   8  276.56   15.36
   1   3   8  292.97   26.37
   1  -3   8  285.09   12.95
   1  -3   9  356.25   30.23
  -1  -3  -9  324.53   29.29
   1  -3   9  292.19   17.12
   1  -3   9  300.98   14.92
  -1   3  -9  341.32   29.18
   1   3   9  268.79   26.20
   1  -3  10  520.94   21.84
   1   3  10  501.41   37.01
   1  -3  10  548.88   38.20
  -1   3 -10  473.48   34.86
   1  -3  10  504.68   24.66
  -1   3 -11    4.40    4.97
   1  -3  11    0.21    2.38
   1  -3  11   -6.29    3.17
   1   3  11   -2.34    5.57
   1   3  12  123.74   19.43
   1  -3  12  137.22   14.84
   1  -3  12  136.27   13.33
  -1   3 -12  122.10   18.72
   1  -3  13   54.12    9.08
   1   3  13   42.16   12.16
   1  -3  13   41.64    8.26
  -1   3 -13   49.73   12.48
   1  -3  14  157.23   17.58
  -1   3 -14  125.48   20.13
   1   3  14  144.31   22.53
   1  -3  15  205.00   20.80
  -1   3 -15  193.48   25.25
   1   3  15  197.00   27.03
   1  -3  16   24.94    8.09
  -1   3 -16   22.39    9.50
   1   3  16   24.28   10.08
   1   3  17  188.03   28.58
   1  -3  17  137.73   18.80
  -1   3 -17  224.24   28.03
   1  -3  18  161.35   21.21
   1   3  18  213.00   30.50
  -1   3 -18  224.70   28.41
   1   3  19   49.50   16.78
   1  -3  19   38.90   11.56
  -1   3 -19   52.09   14.76
   1   3  20   74.11   19.36
   1  -3  20   58.86   14.01
  -1   3 -20   54.96   15.18
   1   3  21    7.37    7.45
  -1   3 -21   15.33    8.35
  -1   3 -22   13.61    9.58
  -1  -4  23   66.69   18.74
  -1  -4  22    7.84    8.22
  -1  -4  21   -3.40    5.71
   1   4 -21    5.69    5.55
  -1   4  21    7.63    9.10
   1   4 -20   21.50    9.43
  -1   4  20    2.36    6.94
  -1  -4  19   28.02   10.99
   1   4 -19   44.49   12.96
  -1   4  19   65.00   19.10
  -1   4  18   18.85    8.93
   1   4 -18   18.45    7.99
  -1   4  17   12.64   10.94
   1   4 -17   25.17    9.77
   1   4 -16   18.18    8.27
  -1   4  16    5.13    5.09
  -1   4  15  250.59   31.54
   1   4 -15  229.38   25.21
   1   4 -15  288.41   30.36
  -1  -4  15  246.07   25.59
  -1  -4  14    9.76    4.67
   1   4 -14    0.79    4.68
   1   4 -14   11.25    7.25
  -1   4  14   12.56    7.71
  -1   4  13  140.12   22.41
   1  -4 -13   92.63    8.33
  -1  -4  13  104.61   15.74
   1   4 -13  141.47   20.96
   1   4 -13  148.59   19.16
   1   4 -12  332.11   30.95
  -1   4  12  324.25   32.77
   1  -4 -12  230.64   14.65
  -1  -4  12  354.42   28.03
   1   4 -12  320.59   26.80
  -1   4  11   11.73    8.41
   1  -4 -11    5.06    3.03
   1   4 -11    7.63    6.79
   1   4 -11    9.06    5.92
   1   4 -10  556.22   38.53
  -1   4  10  593.28   41.12
   1  -4 -10  455.64   23.49
   1   4 -10  532.07   32.90
  -1  -4  10  598.36   36.33
   1  -4  -9 1050.63   54.23
  -1   4   9  980.71   50.88
   1   4  -9 1041.50   51.87
  -1  -4   9 1063.67   52.98
   1   4  -9  944.32   42.08
   1  -4  -9  992.39   35.85
  -1  -4   9 1092.62   47.92
  -1   4   8    0.62    3.32
  -1  -4   8    0.69    3.57
   1  -4  -8    1.50    3.83
   1  -4  -8    0.25    2.83
   1   4  -8    5.25    3.60
   1   4  -8    4.22    5.92
  -1   4   8    0.34    4.48
   1  -4  -7   -1.34    2.42
   1  -4  -7    0.66    3.73
  -1  -4   7    1.53    4.94
   1   4  -7    2.63    3.96
   1   4  -7   -3.69    4.78
  -1   4   7    1.34    4.60
  -1   4   7   -0.38    3.08
   1  -4  -6   59.62    9.89
  -1   4   6   60.95   11.71
   1   4  -6   65.78   10.74
  -1   4   6   67.44   10.52
  -1  -4   6   71.59   13.17
   1   4  -5  182.77   17.21
  -1  -4   5  221.47   23.27
   1  -4  -5  213.61   18.98
  -1   4   5  212.74   18.29
  -1   4   5  208.61   19.80
  -1   4   4  187.37   18.22
  -1  -4   4  186.30   21.02
   1   4  -4  175.70   17.22
   1  -4  -4  158.62   17.01
  -1   4   4  171.11   16.93
  -1   4   3  512.82   29.41
   1  -4  -3  542.34   30.19
  -1  -4   3  527.44   34.61
   1   4  -3  486.79   28.59
   1  -4  -3  494.84   30.27
  -1   4   3  473.04   27.36
  -1   4   2   32.23    7.39
   1  -4  -2   46.15    9.95
   1   4  -2   30.54    8.59
   1  -4  -2   39.23    7.88
  -1  -4   2   42.37   10.26
  -1   4   2   40.12    9.20
   1  -4  -1 1639.55   47.00
  -1   4   1 1595.23   44.57
  -1   4   1 1665.18   55.89
   1   4  -1 1602.90   54.31
   1  -4  -1 1703.63   58.26
  -1  -4   1 1694.17   60.53
  -1   4   0   12.94    4.66
   1  -4   0   19.47    5.36
   1   4   0   13.73    5.79
   1   4   0   11.81    5.72
  -1  -4   0   20.25    7.30
   1  -4   0   15.11    6.28
  -1   4   0   21.05    7.67
  -1   4  -1  672.70   25.54
   1  -4   1  660.87   26.41
  -1  -4  -1  736.59   39.17
   1  -4   1  696.67   39.21
   1   4   1  644.64   35.64
  -1   4  -1  748.22   39.76
  -1   4  -2 1403.88   55.42
  -1  -4  -2 1476.84   56.03
   1  -4   2 1478.97   37.17
   1   4   2 1375.29   53.26
  -1  -4  -2 1442.50   54.66
  -1   4  -2 1497.57   35.52
  -1  -4  -3  835.03   41.30
   1  -4   3  747.13   24.89
  -1  -4  -3  746.20   40.44
  -1   4  -3  845.94   43.92
   1   4   3  699.38   38.21
  -1   4  -3  698.62   18.44
   1  -4   3  788.62   43.55
   1   4   4   64.86   12.68
   1  -4   4   67.14    7.41
   1  -4   4   77.86   14.55
  -1   4  -4   64.43    4.56
  -1  -4  -4   61.30   11.60
  -1  -4  -4   86.66   14.44
   1  -4   5   90.25   15.60
  -1  -4  -5  115.76   17.53
  -1  -4  -5  110.72   15.40
   1  -4   5  102.56    8.86
   1   4   5   89.39   15.13
   1  -4   6  219.40   24.35
  -1  -4  -6  211.16   21.03
  -1  -4  -6  226.98   24.54
   1  -4   6  225.53   13.17
   1   4   6  206.26   22.81
   1   4   7    3.66    4.60
   1  -4   7    2.27    2.09
  -1  -4  -7   -1.10    5.81
  -1   4  -7    8.89    5.39
  -1  -4  -7    4.11    4.70
   1  -4   7   -1.05    5.64
   1  -4   8    6.48    2.35
   1   4   8    5.14    5.49
  -1   4  -8   13.83    7.44
  -1  -4  -8    2.87    4.34
  -1  -4  -9  510.29   32.29
   1  -4   9  566.25   23.47
  -1   4  -9  520.11   39.00
   1   4   9  557.33   40.86
   1  -4  10   14.08    4.39
  -1  -4 -10   11.88    4.25
   1  -4  10   14.84    4.43
  -1   4 -10   13.18    6.86
   1   4  10    7.79    6.30
  -1   4 -11  300.60   31.31
   1   4  11  245.44   28.74
   1  -4  11  300.74   19.09
   1  -4  11  290.49   19.41
   1  -4  12    7.56    3.18
   1  -4  12    0.31    2.76
   1   4  12   10.10    6.84
  -1   4 -12    4.27    4.52
  -1  -4 -12    4.49    3.58
  -1   4 -13  914.80   55.69
   1  -4  13  726.31   34.26
  -1  -4 -13  955.47   44.58
   1   4  13  915.08   58.08
   1  -4  13  671.89   27.86
  -1   4 -14  191.34   26.07
   1  -4  14  154.80   16.56
   1   4  14  227.15   30.00
  -1  -4 -14  205.87   20.74
   1  -4  14  190.74   15.94
   1  -4  15   -1.45    3.94
  -1   4 -15  -11.33    7.61
   1  -4  16    8.36    5.86
  -1   4 -16    6.38    6.62
   1   4  16   10.18   10.15
   1  -4  17    4.63    3.99
  -1   4 -17   -1.85    5.67
   1   4  17   13.23   10.90
   1   4  18   14.74    9.58
  -1   4 -18    4.10    6.87
   1   4  19  111.99   23.82
  -1   4 -19  122.07   24.02
   1   4  20   50.78   17.38
  -1   4 -20   27.98   12.89
  -1   4 -21  105.76   22.03
  -1   4 -22   32.32   14.61
   1   5 -21  106.73   22.43
   1   5 -20   -4.03    5.97
  -1  -5  20   15.25    9.12
   1   5 -19   35.97   14.02
  -1   5  19   34.16   15.26
   1   5 -18  108.48   21.20
  -1   5  18   94.78   23.04
   1   5 -17   40.76   13.43
  -1   5  17   31.44   13.74
   1   5 -16   14.51    6.86
  -1   5  16   25.18   12.50
  -1   5  15   41.84   14.15
   1   5 -15   42.56   12.82
   1   5 -15   51.17   11.91
  -1   5  14   52.00   15.34
   1   5 -14   55.92   11.65
   1   5 -14   75.19   17.07
   1   5 -13   34.71    9.06
  -1   5  13   49.14   14.94
   1   5 -13   47.10   12.82
   1   5 -12   86.63   14.25
   1  -5 -12   85.59   11.76
  -1   5  12   94.13   18.92
   1   5 -12   99.49   19.21
   1   5 -11  760.24   50.66
  -1   5  11  771.92   51.06
  -1  -5  11  888.03   47.65
   1   5 -11  797.65   41.99
  -1   5  10  394.19   35.62
  -1  -5  10  453.78   33.88
   1  -5 -10  320.78   24.29
   1   5 -10  445.39   38.61
   1   5 -10  446.76   30.89
   1  -5  -9   78.76   12.22
  -1  -5   9  105.64   16.44
  -1   5   9  124.59   19.79
   1   5  -9  114.97   15.60
   1   5  -9  113.27   19.77
  -1   5   8  388.73   26.51
  -1   5   8  319.70   29.92
   1   5  -8  360.82   26.84
   1   5  -8  339.39   32.78
  -1  -5   8  327.33   28.00
   1  -5  -7    4.93    3.65
   1   5  -7    6.62    4.58
  -1  -5   7    4.14    3.95
   1  -5  -7    0.86    4.95
  -1   5   7    2.73    4.59
   1   5  -7    6.10    6.12
  -1   5   7    4.46    4.28
   1  -5  -6    3.61    3.23
  -1  -5   6   -0.24    4.62
   1   5  -6    4.97    4.10
   1  -5  -6    6.21    5.79
  -1   5   6    3.77    4.95
   1   5  -6   -7.08    7.35
  -1   5   6    0.70    5.61
  -1   5   5  440.28   31.43
   1   5  -5  469.71   37.13
  -1  -5   5  433.96   31.09
   1   5  -5  421.68   28.69
   1  -5  -5  436.13   32.85
   1  -5  -5  469.28   32.34
  -1   5   5  461.08   30.71
  -1   5   4   29.91    9.13
   1  -5  -4   27.40    8.67
   1   5  -4   24.18    8.79
   1  -5  -4   37.05   10.19
  -1  -5   4   40.24   10.07
   1   5  -4   32.87    8.01
  -1   5   4   18.20    6.29
  -1   5   3   -3.71    3.66
  -1   5   3    6.45    5.88
   1   5  -3    4.74    5.67
  -1  -5   3    6.85    6.26
   1  -5  -3    2.90    4.41
   1   5  -3   -4.11    4.14
   1  -5  -2   91.75   15.69
  -1  -5   2   87.50   14.61
  -1   5   2   82.90   14.25
   1   5  -2   70.28   13.03
  -1   5   2   59.76   10.78
   1   5  -2   80.42   15.02
  -1   5   1  698.52   33.07
  -1  -5   1  790.53   43.63
   1  -5  -1  796.56   45.72
   1   5  -1  780.91   45.31
  -1   5   1  759.34   42.90
   1   5  -1  698.92   39.69
   1   5   0  190.07   22.66
   1  -5   0  176.06   16.88
  -1  -5   0  168.18   20.30
  -1   5   0  180.23   21.45
  -1   5   0  152.34   15.52
   1  -5   0  172.57   21.71
  -1  -5   0  166.41   21.30
   1   5   0  175.02   20.64
  -1  -5  -1   70.78   13.71
   1   5   1   80.34   14.25
   1  -5   1   84.83   11.50
  -1   5  -1   65.02   10.01
   1  -5   1   75.20   15.21
  -1   5  -1   71.97   13.94
  -1  -5  -1   63.58   12.92
  -1   5  -2  221.70   16.49
   1  -5   2  240.89   18.05
  -1  -5  -2  233.27   24.71
  -1  -5  -2  236.07   25.24
  -1   5  -2  250.03   26.21
   1   5   2  198.38   22.39
  -1   5  -3    6.84    4.83
  -1   5  -3   11.37    3.20
  -1  -5  -3   12.65    6.36
  -1  -5  -3   11.61    7.49
   1  -5   3   13.77    4.46
   1   5   3    5.03    5.44
   1   5   4   31.01   10.38
   1  -5   4   33.72    6.37
  -1   5  -4   30.00    9.90
  -1  -5  -4   30.11    9.75
  -1   5  -4   36.54    4.78
   1  -5   5  520.72   23.61
   1   5   5  481.62   36.45
  -1   5  -5  548.24   40.88
  -1   5  -5  484.67   14.09
   1  -5   6  413.40   20.67
   1   5   6  399.80   34.74
  -1  -5  -6  332.28   29.00
  -1   5  -6  406.38   35.87
   1   5   7  531.07   40.68
   1  -5   7  602.99   24.93
  -1   5  -7  522.47   41.63
   1   5   8   11.38    6.99
   1  -5   8    0.80    2.28
  -1  -5  -8   14.07    6.42
  -1   5  -8    9.69    7.37
  -1  -5  -9  315.27   28.42
  -1   5  -9  298.44   32.62
   1   5   9  291.31   31.67
   1  -5   9  217.16   15.17
   1   5  10   -1.29    6.02
   1  -5  10    0.16    1.43
  -1   5 -10   -1.85    7.25
  -1  -5 -10    0.29    5.58
   1   5  11   12.66    8.83
  -1   5 -11    7.13    7.72
   1  -5  11   14.51    4.68
   1  -5  11    1.23    2.13
  -1  -5 -11    4.61    4.70
   1   5  12   40.47   13.59
  -1  -5 -12   40.64   10.96
   1  -5  12   36.57    7.60
  -1   5 -12   42.69   14.24
   1   5  13   53.03   14.37
   1  -5  13   61.04    9.86
  -1   5 -13   72.58   18.09
  -1   5 -14  121.19   23.29
   1   5  14  112.48   22.22
   1   5  15   29.10   13.17
  -1   5 -15   15.49   10.01
   1   5  16   78.48   20.68
  -1   5 -16   26.23   11.57
  -1   5 -17  390.34   42.27
   1   5  17  471.56   49.01
   1   5  18   50.58   17.62
  -1   5 -18   11.86    9.15
  -1   5 -19    1.07    5.69
  -1   5 -20  -12.24    9.01
  -1   5 -21   71.14   19.87
   1   6 -20  -30.59   13.63
   1   6 -19   39.40   14.56
   1   6 -18  101.59   21.56
   1   6 -17   25.37   11.20
  -1   6  17   24.29   12.32
   1   6 -16  104.00   22.22
  -1   6  16   92.60   21.07
   1   6 -15   54.73   16.35
  -1   6  15   54.18   15.95
   1   6 -14  105.47   21.58
   1   6 -14  119.11   17.88
  -1   6  14  122.67   23.67
   1   6 -13   10.57    6.64
   1   6 -13    1.14    7.36
  -1   6  13   -8.01    7.22
   1   6 -12   -2.57    4.89
  -1   6  12   11.63   10.16
   1   6 -12    6.27    6.07
  -1   6  11  108.42   21.11
   1   6 -11   69.31   13.03
   1   6 -11   74.10   18.28
  -1   6  10   50.15   13.89
   1   6 -10   42.15    9.92
   1  -6 -10   65.91   13.57
   1   6 -10   63.26   16.80
   1   6  -9   24.92    9.85
   1  -6  -9   42.95   10.26
  -1   6   9   31.34   11.38
   1   6  -9   27.44    8.05
   1  -6  -8   46.95   11.44
   1   6  -8   38.41   12.67
  -1   6   8   43.08   12.97
   1   6  -8   54.12   11.40
   1   6  -7  166.79   24.78
  -1   6   7  186.25   23.96
   1  -6  -7  188.59   22.90
  -1   6   7  190.95   21.73
   1   6  -7  175.30   19.66
   1   6  -6  387.20   37.40
  -1   6   6  367.25   32.35
   1   6  -6  377.46   29.01
  -1  -6   6  375.40   31.73
   1  -6  -6  371.74   32.64
  -1   6   6  405.55   31.93
  -1   6   5  110.02   17.96
  -1  -6   5  134.80   19.80
   1   6  -5  117.01   16.87
   1  -6  -5  119.03   19.13
  -1   6   5  116.56   17.55
   1   6  -5   91.15   18.30
   1   6  -4   74.50   13.96
   1  -6  -4  102.61   16.97
  -1   6   4   89.46   15.28
  -1   6   4   97.70   16.89
   1   6  -4  105.79   18.92
   1   6  -3    2.85    3.64
   1  -6  -3    2.76    3.92
  -1   6   3    9.36    7.26
   1   6  -3   16.68    8.73
  -1   6   3    6.72    5.18
   1  -6  -2    1.16    3.03
  -1   6   2    4.31    5.08
  -1   6   2    1.28    4.59
   1   6  -2    2.44    5.33
   1   6  -2    0.77    5.05
  -1   6   1   83.25   16.61
   1   6  -1   95.75   16.49
   1   6  -1   84.15   16.80
  -1   6   1   86.45   13.39
  -1   6   0  156.94   17.19
   1   6   0  132.69   20.00
  -1   6   0  187.84   24.34
   1   6   1   43.57   12.15
  -1   6  -1   42.60    8.96
  -1   6  -1   48.88   13.08
  -1   6  -2  181.76   24.61
   1   6   2  152.50   21.71
  -1   6  -2  175.76   16.67
   1   6   3   82.10   16.63
  -1   6  -3   83.62    9.23
  -1   6  -3  109.56   19.18
   1   6   4   30.42   11.99
  -1   6  -4   18.56    3.88
   1  -6   4    9.18    3.48
  -1   6  -4   18.04    8.08
  -1   6  -5  332.52   14.08
   1   6   5  343.26   33.52
  -1   6  -5  341.84   34.97
   1  -6   6  121.87   12.63
   1   6   6  160.60   23.84
  -1   6  -7  696.57   51.63
   1  -6   7  753.55   30.71
   1   6   7  649.00   48.03
   1   6   8   35.95   13.11
  -1   6  -8   37.75   13.22
   1   6   9  441.24   41.41
  -1   6  -9  452.27   43.00
   1   6  10  476.58   44.12
  -1   6 -10  487.63   45.09
  -1   6 -11    1.92    6.12
   1   6  11    7.18    7.43
   1   6  12  288.84   36.33
  -1   6 -12  261.56   34.36
   1   6  13  117.93   24.27
  -1   6 -13  106.71   22.47
  -1   6 -14   12.90   10.21
   1   6  14    2.24    7.08
  -1   6 -15    8.30   11.04
   1   6  15    2.21    5.10
   1   6  16  -16.94   11.37
  -1   6 -16   26.86   11.59
  -1   6 -17   29.20   14.55
  -1   7  15   23.60   11.74
   1   7 -15   19.30   11.03
  -1   7  14    8.28    9.62
   1   7 -14  -10.61    8.64
  -1   7  13   50.76   16.27
   1   7 -13   21.88   11.29
   1   7 -12  419.50   45.25
  -1   7  12  399.92   42.39
   1   7 -11   11.07    8.70
  -1   7  11   29.67   11.00
  -1   7  10   66.97   16.46
   1   7 -10   64.52   13.02
   1   7 -10   61.43   17.39
  -1   7   9  252.55   31.75
   1   7  -9  211.49   23.07
   1   7  -9  247.30   34.56
   1   7  -8   -0.21    5.10
  -1   7   8    5.56    8.60
   1   7  -8    5.10    4.59
  -1   7   7   35.54   11.77
   1   7  -7   40.44   10.68
  -1   7   7   35.23   10.33
   1   7  -7   25.64   10.65
   1   7  -6   69.42   18.04
  -1   7   6   37.26   11.56
   1   7  -6   53.17   12.36
  -1   7   6   52.13   13.37
  -1   7   5    0.66    4.40
  -1   7   5    2.09    5.01
   1   7  -5    3.84    5.79
   1   7  -5    5.64    6.88
  -1   7   4   17.89    7.98
   1   7  -4   22.40   11.27
   1   7  -4   10.82    6.91
  -1   7   4   22.03   10.08
  -1   7   3  271.53   30.48
   1   7  -3  283.76   33.36
   1   7  -3  236.60   25.59
  -1   7   3  249.72   26.24
  -1   7   2    5.69    4.17
   1   7  -2   10.87    6.04
  -1   7   2   23.40    9.57
   1   7  -2   24.83    8.75
   1   7  -1   -2.89    5.05
  -1   7   1   -0.99    4.20
   1   7  -1    6.16    6.89
  -1   7   1  -11.31    7.57
   1   7   0  269.17   29.46
  -1   7   0  330.38   34.99
  -1   7   0  291.87   25.45
  -1   7  -1  202.01   27.90
  -1   7  -1  190.26   19.84
   1   7   1  182.38   25.13
   1   7   2   33.38   11.30
  -1   7  -2   42.01    8.01
  -1   7  -2   58.07   15.77
  -1   7  -3  241.83   17.28
  -1   7  -3  290.73   33.90
   1   7   3  274.54   31.89
   1   7   4  182.39   25.84
  -1   7  -4  187.86   28.08
   1   7   5   65.19   16.58
  -1   7  -5  110.26   21.95
  -1   7  -6    0.53    4.06
   1   7   6    7.48    8.74
  -1   7  -7   21.86   10.35
   1   7   7   22.11   10.02
  -1   7  -8  134.87   24.85
   1   7   8  182.62   28.62
   1   7   9   72.23   18.14
  -1   7  -9   89.20   21.17
   1   7  10   15.03    9.20
  -1   7 -10   21.64   11.59
   1   7  11    1.93    6.34
  -1   7 -11   14.60   11.00
   1   7  12   -4.61    7.13
  -1   7 -12   -9.33    9.23
   1   7  13  -26.93   13.24
  -1   7 -13  -14.01   10.19
  -1   8  12   19.08    9.71
  -1   8  11  -13.13    9.31
  -1   8  10   83.57   18.96
   1   8  -9   57.03   19.24
  -1   8   9   55.04   15.99
  -1   8   8   17.00    9.58
   1   8  -8   -2.74    9.73
  -1   8   7  200.07   28.02
   1   8  -7  210.01   32.90
  -1   8   6    0.60    4.03
  -1   8   6    1.66    5.89
  -1   8   5   17.98    9.41
   1   8  -5   25.01    8.89
   1   8  -5   37.42   14.23
  -1   8   5   41.79   12.69
   1   8  -4  119.33   23.90
  -1   8   4  121.85   20.43
  -1   8   4  118.00   21.42
   1   8  -4   89.22   16.86
  -1   8   3    1.07    4.13
   1   8  -3   -3.00    4.76
   1   8  -3   -2.44    4.85
   1   8  -2  -11.25    6.68
  -1   8   2    5.05    4.72
  -1   8   2    6.13    6.30
  -1   8   1   25.19    8.42
   1   8  -1   30.61   10.17
  -1   8   1   26.21   11.12
  -1   8   0   35.05   10.42
   1   8   0   46.58   15.36
  -1   8   0   39.30   13.78
   1   8   1  145.67   23.94
  -1   8  -1  144.19   25.33
   1   8   2   11.45    6.11
  -1   8  -2   -0.13    4.70
   1   8   3  137.33   23.98
  -1   8  -3  116.15   23.36
   1   8   4   -0.64    7.55
  -1   8  -4   12.74    8.76
   1   8   5    7.23    9.66
  -1   8  -5   -0.05    3.62
   1   8   6   -8.41    8.11
  -1   8  -6   10.34    8.19
   1   8   7   13.74    9.74
  -1   8  -7    9.76    7.95
  -1   8  -8   24.44   11.46
   1   8   8   29.62   15.43
   1   8   9    8.54    8.42
   1   8  10   13.22    8.18
  -1   9   4   38.51   13.26
  -1   9   3  133.74   25.65
  -1   9   2   13.63    8.86
  -1   9   1   41.78   14.40
  -1   9   0   -1.51    4.73
   1   9   1   15.20    9.53
   1   9   2   10.05    8.46
   1   9   3   27.92   13.61
   1   9   4    8.46   10.44
   1   9   5   -0.52    5.90
  -2   0  23  -19.93   11.54
  -2   0  22  297.03   39.06
  -2   0  21    0.83    6.41
  -2   0  20   49.31   14.65
  -2   0  19   -2.09    7.59
  -2   0  18   13.46    8.27
  -2   0  17    1.12    5.56
  -2   0  16    9.28    8.35
  -2   0  15   -0.31    1.09
  -2   0  15    2.35    6.22
  -2   0  14  181.94   10.86
  -2   0  14  173.59   23.56
   2   0 -13    6.86    5.79
  -2   0  13   -2.10    1.34
   2   0 -12 1290.13   58.37
  -2   0  12 1290.72   29.40
  -2   0  12 1329.28   58.14
  -2   0  11   -0.22    1.59
   2   0 -11   -3.52    4.94
   2   0 -10  274.66   24.99
  -2   0  10  289.40   14.27
  -2   0   9    1.22    1.63
   2   0  -9    5.15    5.14
  -2   0   8  115.78    9.44
   2   0  -8  148.24   16.97
   2   0  -7   -3.39    3.85
   2   0  -6 2651.70   64.80
   2   0  -5    0.07    4.07
   2   0  -4 1073.05   38.45
   2   0  -3    1.43    4.07
   2   0  -2  178.37   14.74
   2   0  -1   -1.98    3.98
  -2   0   1    3.84    3.83
   2   0   0 1963.71   46.68
  -2   0   0 1962.86   42.18
  -2   0  -1    0.31    3.04
   2   0   1   -0.51    3.09
   2   0   2  233.72   14.79
  -2   0  -2  227.87   14.41
  -2   0  -3    0.90    2.52
   2   0   3   -0.88    2.71
  -2   0  -4 3348.37   58.40
   2   0   4 3179.46   57.36
   2   0   5    3.14    3.97
  -2   0  -5    1.65    2.89
  -2   0  -6    2.81    3.26
   2   0   6    1.55    3.25
   2   0   7   -0.13    3.05
  -2   0  -7    0.39    3.70
   2   0   8   34.89    7.79
  -2   0  -8   47.54    9.15
   2   0   9    3.40    4.09
  -2   0  -9   -2.30    3.95
   2   0  10  197.12   19.36
  -2   0 -10  202.64   19.45
  -2   0 -10  195.81   21.44
  -2   0 -11   -4.64    6.91
   2   0  11    2.59    5.18
  -2   0 -11   -2.37    3.85
  -2   0 -12 2930.44   80.49
   2   0  12 2745.03   76.83
  -2   0 -12 2706.95   82.80
  -2   0 -13   -3.72    6.47
   2   0  13    2.66    4.26
  -2   0 -13   -7.11    4.92
  -2   0 -14    4.67    4.73
  -2   0 -14   -1.99    3.14
   2   0  14    6.36    6.36
  -2   0 -15   -6.02    5.62
   2   0  15   -2.53    4.80
   2   0  16  564.61   40.62
  -2   0 -16  579.74   41.34
  -2   0 -17    0.18    5.32
   2   0  17   -0.03    5.35
   2   0  18    7.94    6.58
  -2   0 -18    2.96    5.73
  -2   0 -19  -11.31    6.99
   2   0  19   -6.10    5.84
  -2   0 -20   -6.03    6.08
   2   0  20    3.57    5.46
  -2   0 -21    2.29    4.95
   2   0  21    9.50    7.32
   2   0  22  404.82   42.08
   2   0  23   34.45   14.44
  -2  -1  24   31.71   15.12
  -2  -1  23   32.60   14.46
  -2   1  23   40.93   16.20
  -2  -1  22  124.34   25.88
  -2   1  22  118.67   26.01
  -2  -1  21  252.07   35.19
  -2   1  21  207.49   32.29
  -2  -1  20  -14.98    9.38
  -2   1  20   -2.71    8.36
  -2  -1  19   26.51   10.88
  -2   1  19   70.45   19.61
  -2  -1  18   80.41   18.45
  -2   1  18   71.56   18.24
  -2  -1  17  105.59   20.45
  -2   1  17  117.10   22.08
  -2  -1  17  105.06   12.35
  -2   1  16  640.14   48.47
  -2  -1  16  636.63   29.91
  -2  -1  15    8.07    3.90
   2   1 -15    0.57    5.25
  -2   1  15    2.81    6.48
  -2  -1  14    0.61    3.34
   2   1 -14    0.03    4.94
  -2   1  14   -0.72    8.52
  -2   1  13  117.61   19.16
   2   1 -13  118.82   18.47
  -2  -1  13  123.10   12.68
  -2  -1  13  152.21   20.79
  -2   1  12    0.18    4.85
  -2   1  12   11.96    6.93
   2   1 -12    0.58    3.98
  -2  -1  12    4.83    3.30
  -2  -1  12   -2.77    3.45
  -2   1  11  487.27   35.39
  -2  -1  11  511.77   25.22
  -2  -1  11  529.62   35.22
   2   1 -11  507.60   35.07
  -2  -1  10  871.05   32.40
  -2   1  10  896.86   45.50
   2   1 -10  930.28   45.24
  -2  -1   9  774.06   30.14
  -2   1   9  731.47   16.79
   2   1  -9  777.04   39.68
   2  -1  -9  793.33   41.36
  -2   1   9  694.68   15.48
   2  -1  -8  114.33   15.42
  -2  -1   8  128.70   12.36
   2   1  -8  139.18   16.72
   2   1  -7    3.77    3.84
   2  -1  -7   -2.13    3.86
  -2  -1   7   -0.25    2.55
   2  -1  -6  202.22   18.29
  -2   1   6  193.90   17.51
  -2  -1   6  173.53   14.04
   2   1  -6  213.69   19.21
   2   1  -5  103.85   13.09
  -2   1   5  111.89   12.74
   2  -1  -5  106.62   12.69
   2   1  -4  245.08   19.11
  -2   1   4  253.68   18.10
   2  -1  -4  232.93   17.86
  -2   1   3  634.93   27.15
   2  -1  -3  610.77   27.03
   2   1  -3  600.77   29.26
   2   1  -2  964.07   36.59
  -2   1   2  977.99   31.57
   2  -1  -2  975.62   31.96
   2  -1  -1   50.65    7.29
   2   1  -1   37.67    7.49
  -2   1   1   29.72    5.51
  -2   1   0   16.10    4.11
   2   1   0   17.06    5.44
   2  -1   0   23.70    5.09
   2   1   1 1396.67   41.71
  -2  -1  -1 1444.51   42.08
   2  -1   1 1384.68   33.61
  -2   1  -1 1416.35   28.86
  -2  -1  -2  957.60   34.87
  -2   1  -2  900.81   22.17
   2  -1   2  902.96   27.36
   2   1   2  899.46   34.22
   2   1   3 1043.90   37.76
  -2   1  -3 1048.03   24.49
  -2  -1  -3 1071.11   37.76
   2  -1   3 1058.10   24.41
  -2   1  -4 1999.42   35.40
  -2  -1  -4 2003.24   53.12
   2   1   4 1906.17   51.69
   2  -1   4 1989.08   35.25
   2   1   5   45.73    8.96
  -2   1  -5   57.43    6.73
   2  -1   5   56.33    6.66
  -2  -1  -5   51.58    9.18
   2   1   6    0.05    3.79
   2  -1   6    0.83    2.38
  -2   1  -6    3.44    2.12
  -2   1  -7  246.22   15.85
  -2  -1  -7  252.87   21.15
   2   1   7  214.00   19.63
   2  -1   7  215.79   14.48
  -2   1  -8  193.61   15.12
  -2  -1  -8  212.16   20.20
   2  -1   8  186.64   14.69
   2   1   8  180.64   18.78
  -2   1  -9  492.19   25.58
  -2  -1  -9  491.90   32.01
   2  -1   9  452.21   24.39
   2   1   9  447.48   30.27
  -2   1  -9  442.46   32.58
  -2   1 -10   28.46    9.92
  -2  -1 -10   21.14    7.52
  -2   1 -10   25.70    6.73
   2  -1  10   36.51    7.91
   2   1  10   41.40   10.83
  -2   1 -11  527.32   29.44
  -2  -1 -11  493.20   34.66
   2  -1  11  499.71   28.62
   2   1  11  496.57   34.49
  -2   1 -11  533.38   37.08
   2  -1  12 1363.02   49.70
   2   1  12 1306.04   57.35
  -2   1 -12 1242.94   57.60
  -2   1 -13   75.17   15.07
   2  -1  13   59.87   11.60
   2   1  13   85.49   16.32
   2   1  14   93.22   17.26
  -2   1 -14  108.23   18.21
   2  -1  14   89.46   14.30
  -2  -1 -14  127.41   19.17
  -2   1 -15    3.36    4.19
  -2  -1 -15   -3.33    4.69
   2  -1  15   -1.37    3.93
   2   1  15   -1.82    4.82
   2  -1  16  349.22   30.99
  -2  -1 -16  389.95   33.63
   2  -1  16  333.41   29.69
   2   1  16  372.99   35.32
  -2   1 -16  347.50   33.39
  -2   1 -17   32.92   11.25
  -2  -1 -17   19.63    9.29
   2   1  17   24.66    9.95
   2  -1  17   19.58    8.21
  -2  -1 -18  187.73   24.16
   2  -1  18  146.08   21.16
   2   1  18  185.08   26.88
  -2   1 -18  175.81   25.22
  -2  -1 -19  205.81   25.32
   2   1  19  299.93   34.81
  -2   1 -19  267.25   31.07
   2  -1  19  195.16   25.14
   2   1  20  175.71   27.23
   2  -1  20  164.51   24.12
  -2  -1 -20  175.48   23.93
  -2   1 -20  222.01   29.09
  -2   1 -21   13.27    7.90
   2  -1  21   18.24    7.74
   2   1  21   17.07   11.30
   2   1  22   22.22   10.69
   2   1  23   43.73   15.71
  -2  -2  24   28.07   14.72
  -2  -2  23   41.25   15.27
  -2   2  22   25.97   14.42
  -2  -2  22   16.30   10.12
  -2   2  21   29.52   13.27
  -2  -2  21    4.16    6.56
  -2  -2  20   10.73   10.14
  -2   2  20    1.50    7.34
  -2   2  19  146.57   26.75
  -2  -2  19  158.57   26.05
  -2   2  18   -0.50    7.02
   2   2 -17  152.95   23.22
  -2   2  17  133.18   23.62
  -2  -2  17  141.02   17.32
  -2  -2  16   31.70    8.82
   2   2 -16   27.68    9.53
  -2   2  16   31.83   12.41
   2   2 -15  498.14   39.84
  -2   2  15  520.39   43.55
  -2  -2  15  540.07   32.84
  -2  -2  14    3.02    3.30
   2   2 -14    9.20    4.27
  -2   2  14   -1.20    7.90
  -2   2  13  647.74   45.05
  -2  -2  13  667.85   35.26
   2   2 -13  713.70   44.58
   2   2 -12    9.14    7.24
  -2  -2  12   -2.16    4.16
  -2   2  12    4.67    5.94
  -2  -2  12   -4.03    5.55
  -2   2  11   11.03    7.36
  -2   2  11    5.26    5.96
  -2  -2  11    8.20    5.01
  -2  -2  11    0.08    2.98
   2   2 -11    2.40    4.70
  -2   2  10  129.59   18.26
  -2  -2  10  150.20   18.49
  -2  -2  10  150.46   16.33
   2   2 -10  137.40   17.48
  -2   2  10  148.06   18.94
  -2   2   9   20.10    7.92
  -2  -2   9   16.36    5.84
  -2   2   9    9.40    6.03
   2   2  -9   16.08    5.88
  -2  -2   9   15.78    5.84
  -2   2   9   14.84    2.34
  -2  -2   8  308.04   22.46
  -2   2   8  302.07   25.47
   2   2  -8  303.16   24.74
  -2   2   8  258.90   11.97
  -2   2   8  341.06   26.47
  -2  -2   7 1024.44   40.57
  -2   2   7  994.65   43.24
  -2   2   7 1040.37   27.16
   2   2  -7 1053.05   44.74
  -2   2   7 1098.90   44.93
  -2   2   6  857.94   37.89
  -2   2   6  875.71   38.31
  -2  -2   6  867.52   36.81
   2   2  -6  814.02   38.47
  -2   2   6  851.71   27.08
  -2   2   5  502.15   27.54
  -2  -2   5  527.45   28.68
   2   2  -5  533.85   30.02
  -2   2   5  511.31   22.55
  -2   2   5  602.89   29.85
   2  -2  -4  290.76   20.24
  -2  -2   4  342.87   23.06
  -2   2   4  335.36   21.39
  -2   2   4  330.35   19.21
   2   2  -4  297.86   22.47
  -2   2   4  300.35   19.87
   2  -2  -3 7069.56   91.97
  -2  -2   3 7027.64  104.20
   2   2  -3 7053.89  108.29
  -2   2   3 7318.53   93.90
  -2   2   3 7218.33   91.43
   2  -2  -2  299.96   17.70
  -2   2   2  323.41   17.65
   2   2  -2  311.89   22.76
  -2   2   2  326.43   21.01
  -2   2   2  313.72   17.70
  -2   2   1  540.43   28.32
  -2   2   1  546.74   20.49
   2  -2  -1  574.63   22.54
   2   2  -1  521.22   28.60
  -2   2   1  584.87   22.05
   2  -2   0  211.22   12.60
  -2   2   0  237.02   11.73
  -2   2   0  223.65   12.54
  -2   2   0  251.87   19.98
   2   2   0  211.05   18.48
  -2   2  -1 1366.08   23.19
  -2   2  -1 1307.17   27.50
  -2   2  -1 1373.53   48.28
   2  -2   1 1299.95   27.60
   2   2   1 1268.23   45.55
   2   2   2  198.40   18.70
   2  -2   2  211.24   10.05
   2   2   3  687.24   34.52
   2  -2   3  671.24   16.91
   2   2   4    1.80    3.85
   2  -2   4    0.70    1.32
  -2  -2  -5  943.88   42.51
   2   2   5  884.10   40.59
   2  -2   5  868.89   21.08
   2  -2   6    5.40    1.71
   2   2   6   -2.35    4.53
  -2  -2  -6    6.06    5.29
   2   2   7   48.41   10.80
   2  -2   7   59.54    5.76
  -2  -2  -7   54.20   10.84
  -2  -2  -8  117.98   16.73
   2  -2   8  158.88   10.84
   2   2   8  137.37   18.10
  -2   2  -9  506.64   36.80
   2  -2   9  525.78   21.86
   2   2   9  478.93   34.23
   2   2  10    4.69    6.06
   2  -2  10    6.25    3.76
  -2   2 -10    1.45    5.14
   2  -2  10    2.66    2.97
  -2  -2 -10    2.70    4.53
   2  -2  11  225.73   17.66
   2  -2  11  220.10   16.85
   2   2  11  197.26   23.46
  -2   2 -11  234.85   26.06
  -2   2 -12   27.83    9.60
   2   2  12   36.01   11.87
   2  -2  12   23.73    6.31
   2  -2  12   31.26    7.62
   2  -2  13  988.53   40.51
   2   2  13  961.16   54.86
  -2   2 -13  935.32   54.18
   2   2  14   10.09    5.83
  -2   2 -14    6.91    6.42
   2  -2  14   17.63    6.94
  -2   2 -15  263.20   30.11
   2  -2  15  217.06   21.15
   2   2  15  233.60   28.62
   2   2  16   11.23    8.22
  -2   2 -16    3.14    4.63
  -2  -2 -16    7.85    5.35
   2  -2  16   -2.52    3.83
   2  -2  16   -4.81    4.48
  -2   2 -17   12.99    6.66
  -2  -2 -17    8.62    6.16
   2   2  17   -2.80    8.38
  -2   2 -18   31.34   11.20
  -2  -2 -18   30.49    9.59
   2  -2  18    9.32    5.56
   2   2  18   38.09   13.52
  -2   2 -19   -2.25    5.02
  -2  -2 -19   -3.05    3.92
   2  -2  19   -8.14    5.53
   2   2  19   11.14    8.17
   2   2  20   59.28   17.17
  -2   2 -20   44.66   13.78
   2   2  21    7.93    8.11
  -2   2 -21    5.21    6.17
   2   2  22  239.95   35.66
  -2   2 -22  206.49   29.26
  -2  -3  23   75.47   21.07
  -2  -3  22   19.63    9.95
  -2  -3  21  495.59   48.17
  -2   3  21  512.32   52.85
   2   3 -20   26.34    8.61
  -2   3  20   29.03   12.51
  -2  -3  20   41.29   15.31
  -2   3  19   45.50   15.54
   2   3 -19   38.77   10.76
  -2   3  18   53.67   16.11
   2   3 -18   89.75   15.98
   2   3 -18   68.16   16.82
   2   3 -17   51.80   13.98
  -2   3  17   43.21   14.65
   2   3 -17   46.59   11.84
   2   3 -16  -14.02    6.70
   2   3 -16    0.13    7.02
  -2   3  16   -1.82    7.39
  -2  -3  15   49.60   11.96
  -2   3  15   46.40   14.94
   2   3 -15   34.34   11.57
   2   3 -15   31.78    9.79
  -2  -3  14   35.23    9.89
   2   3 -14   45.23   10.75
   2   3 -14   35.50   10.54
  -2   3  14   39.37   12.27
   2   3 -13  179.04   20.93
  -2   3  13  187.83   25.67
  -2  -3  13  166.51   20.21
   2   3 -13  219.93   24.98
  -2  -3  12   54.12   11.79
  -2  -3  12   51.22   11.06
  -2   3  12   51.33   14.04
   2   3 -12   60.96   12.72
   2   3 -12   67.12   13.61
  -2  -3  11  605.04   37.30
  -2   3  11  470.20   37.46
   2   3 -11  629.51   38.04
  -2  -3  11  588.27   38.71
   2   3 -11  587.22   38.37
  -2   3  10  805.95   46.73
  -2   3  10  812.17   20.53
  -2  -3  10  904.54   46.43
   2   3 -10  923.47   45.41
  -2  -3  10  895.73   45.42
   2   3 -10  892.66   46.22
  -2   3  10  978.33   50.77
  -2   3   9  833.86   45.56
  -2  -3   9  866.06   44.58
   2   3  -9  827.53   42.51
  -2   3   9  767.23   23.45
  -2  -3   9  882.08   44.07
   2   3  -9  791.87   42.59
  -2   3   8  526.31   34.40
  -2   3   8  450.32   19.93
  -2   3   8  435.31   31.63
  -2  -3   8  490.28   32.68
  -2  -3   8  465.01   31.61
   2   3  -8  426.90   30.51
  -2  -3   7   22.30    7.42
  -2   3   7   32.42    8.49
  -2   3   7   25.23    7.34
   2   3  -7   30.82    8.97
  -2  -3   7   26.05    7.26
  -2   3   7   28.06    5.64
  -2   3   6  440.09   29.09
  -2  -3   6  455.79   30.92
   2   3  -6  386.20   27.62
  -2   3   6  403.78   21.79
  -2  -3   6  378.45   27.93
   2  -3  -6  429.08   23.34
  -2   3   6  448.00   28.83
  -2  -3   5   18.52    6.62
   2  -3  -5    8.86    3.42
  -2   3   5    9.50    4.48
   2   3  -5    4.28    4.05
  -2   3   5   12.62    5.84
  -2   3   5   14.37    4.84
  -2   3   4  384.15   23.82
  -2   3   4  375.72   23.16
   2   3  -4  392.79   27.79
  -2  -3   4  347.91   26.76
   2  -3  -4  407.83   24.82
  -2   3   4  407.19   24.26
  -2  -3   3  385.88   27.93
  -2   3   3  465.82   24.21
  -2   3   3  453.84   24.17
   2  -3  -3  446.07   26.73
   2   3  -3  441.59   29.16
  -2   3   3  459.45   26.46
   2  -3  -2  430.30   27.03
  -2   3   2  431.12   21.28
   2   3  -2  392.02   27.51
  -2  -3   2  451.01   30.17
  -2   3   2  466.47   27.59
  -2   3   2  398.30   20.57
  -2   3   1  351.60   17.18
   2  -3  -1  300.33   23.81
  -2   3   1  300.13   23.32
  -2   3   1  323.50   16.77
  -2  -3   1  304.41   24.79
   2   3  -1  293.73   24.10
  -2   3   0 1140.63   27.99
  -2   3   0 1200.41   26.79
  -2  -3   0 1063.25   45.98
  -2   3   0 1229.59   48.07
   2   3   0 1130.47   46.90
   2  -3   0 1116.05   46.89
  -2   3  -1 2566.82   71.52
  -2   3  -1 2379.49   29.86
  -2  -3  -1 2476.79   70.15
  -2   3  -1 2439.68   34.13
   2   3   1 2414.87   69.80
   2  -3   1 2514.67   71.94
   2  -3   2  267.87   24.22
   2   3   2  269.40   23.75
  -2   3  -2  303.83   25.38
   2   3   3  218.87   22.05
   2  -3   3  216.38   22.54
   2   3   4  581.59   35.94
   2  -3   4  616.38   38.66
   2   3   5  180.02   20.66
   2  -3   5  190.63   21.98
   2   3   6    9.23    5.77
   2  -3   6   16.54    6.87
  -2  -3  -6   29.11    9.93
  -2  -3  -7 1014.82   50.90
   2   3   7  878.63   47.68
  -2   3  -7  942.21   50.52
   2  -3   7  940.93   51.33
   2   3   8  428.60   33.93
  -2   3  -8  415.00   34.64
  -2   3  -9  755.91   47.38
   2  -3   9  751.63   17.72
   2   3   9  768.43   47.16
   2  -3   9  748.29   16.97
   2  -3  10  357.59   15.17
   2   3  10  324.43   31.42
  -2   3 -10  343.76   32.61
   2  -3  10  346.42   14.58
  -2   3 -11   39.23   12.13
   2   3  11   52.25   14.22
   2  -3  11   52.32    6.84
   2  -3  11   57.15    6.83
  -2   3 -12   26.65   10.07
   2   3  12   27.87   10.54
   2  -3  12   18.30    4.40
   2  -3  12   20.29    4.96
  -2   3 -13    7.06    7.33
   2   3  13   -2.48    5.16
   2  -3  13    0.30    2.26
   2  -3  13   -0.90    1.49
  -2   3 -14    5.21    6.08
   2   3  14    6.22    7.46
   2  -3  14   -0.30    2.31
   2  -3  14   -0.17    2.71
  -2   3 -15    5.33    5.53
   2   3  15   -3.61    6.93
   2  -3  15    9.91    3.47
  -2   3 -16   18.38   10.00
   2   3  16   25.40   12.45
   2  -3  16   10.40    5.12
  -2   3 -17   17.26    9.50
   2   3  17    1.01    6.44
  -2   3 -18   58.62   15.97
   2   3  18   41.41   14.85
   2   3  19  160.27   28.21
  -2   3 -19  174.61   27.65
   2   3  20   58.95   18.73
  -2   3 -20   83.08   19.01
  -2   3 -21  126.47   24.90
  -2   3 -22   17.37   10.70
  -2  -4  23   33.49   15.08
  -2  -4  22  107.55   23.56
  -2  -4  21   34.49   13.56
  -2   4  20   48.01   17.42
   2   4 -20   34.48   11.19
  -2   4  19    5.04    7.42
   2   4 -19  -11.47    7.97
  -2   4  18   54.92   16.33
   2   4 -18   66.41   15.83
   2   4 -18   66.73   15.05
  -2   4  17   42.27   15.35
   2   4 -17   49.77   13.07
   2   4 -17   47.32   13.91
  -2   4  16   71.56   17.99
   2   4 -16   67.43   15.20
   2   4 -16   51.66   13.88
   2   4 -15   -0.22    4.20
  -2   4  15   -2.41    4.81
   2   4 -15    3.42    6.36
   2   4 -14  171.42   23.10
   2   4 -14  108.78   18.44
  -2   4  14  144.35   24.17
  -2   4  13  461.13   41.05
   2   4 -13  479.37   38.40
   2   4 -13  477.28   37.28
  -2   4  12  553.27   43.42
   2   4 -12  566.11   40.70
   2   4 -12  550.83   39.06
  -2   4  11  977.23   55.70
  -2  -4  11 1068.05   53.18
   2   4 -11 1069.68   55.46
   2   4 -11 1025.82   52.63
   2   4 -10   50.23   11.61
  -2   4  10   66.60    8.38
  -2   4  10   70.31   15.32
   2   4 -10   80.75   15.97
   2   4  -9   23.42    8.02
  -2   4   9   44.09   11.17
   2  -4  -9   22.50    5.92
   2   4  -9   28.89    9.04
  -2   4   9   29.62    9.42
  -2   4   9   32.59    6.40
  -2   4   8   68.66   13.21
  -2   4   8   88.71   15.04
   2   4  -8  116.86   18.00
  -2   4   8  108.49   12.22
  -2  -4   8  126.40   18.17
   2  -4  -8   86.50   11.37
   2   4  -8   74.20   13.28
  -2   4   7   -9.70    5.26
   2  -4  -7    0.08    2.39
  -2  -4   7    6.20    4.97
   2   4  -7    2.05    4.89
  -2   4   7   -1.43    3.35
  -2   4   7   -0.17    4.82
  -2   4   6  324.95   25.92
  -2   4   6  310.50   22.47
  -2   4   6  293.43   24.34
   2   4  -6  301.00   25.90
  -2  -4   6  344.01   30.08
  -2  -4   6  308.33   27.50
   2  -4  -6  284.25   22.25
  -2   4   5  195.41   19.37
  -2   4   5  174.30   18.08
   2   4  -5  155.44   18.84
  -2  -4   5  179.13   21.13
  -2  -4   5  199.93   22.80
  -2   4   5  170.33   17.46
   2  -4  -5  168.32   17.93
  -2   4   4  583.78   31.14
  -2   4   4  527.01   29.40
   2   4  -4  531.54   34.89
  -2  -4   4  497.04   34.36
  -2  -4   4  599.62   39.05
  -2   4   4  564.75   32.18
   2  -4  -4  540.79   32.91
  -2   4   3  437.11   25.37
   2  -4  -3  411.36   29.44
  -2   4   3  370.81   23.02
   2   4  -3  399.05   29.73
  -2  -4   3  409.92   31.31
  -2  -4   3  425.09   32.85
  -2   4   3  388.52   27.54
  -2   4   2 1787.10   46.60
  -2   4   2 1786.27   60.39
   2  -4  -2 1748.14   61.94
   2   4  -2 1772.61   62.78
  -2  -4   2 1848.20   65.50
  -2  -4   2 1842.94   67.16
  -2   4   2 1856.49   47.88
   2   4  -1  301.60   26.69
  -2   4   1  341.88   18.65
  -2  -4   1  353.37   29.19
  -2  -4   1  383.44   30.97
  -2   4   1  353.45   27.68
   2  -4  -1  322.77   27.41
  -2   4   1  380.76   19.53
  -2   4   0   37.01    5.37
  -2  -4   0   25.96    8.19
   2  -4   0   33.39   10.02
   2   4   0   21.87    8.60
  -2   4   0   26.35    4.59
  -2  -4   0   25.88    8.32
  -2   4   0   31.48    8.99
   2   4   1   99.43   16.13
  -2   4  -1  122.02   17.37
  -2  -4  -1  124.80   17.72
  -2   4  -1  128.72    8.53
  -2  -4  -1  114.86   16.95
  -2   4  -1  117.07    7.87
   2  -4   1  124.89   18.26
  -2  -4  -2  805.38   45.57
  -2  -4  -2  808.36   44.75
   2   4   2  744.10   43.38
  -2   4  -2  751.60   43.45
   2  -4   2  764.61   45.26
  -2  -4  -3  365.82   30.19
  -2  -4  -3  361.34   30.99
   2   4   3  402.83   32.16
  -2   4  -3  375.10   31.18
   2  -4   3  406.01   33.49
   2   4   4  320.86   29.49
  -2  -4  -4  396.03   31.35
  -2   4  -4  389.04   32.80
   2  -4   4  308.59   29.80
  -2   4  -5   48.54   12.50
   2   4   5   36.68   10.27
  -2  -4  -5   31.84    9.25
  -2   4  -6  226.12   25.99
   2   4   6  177.15   22.86
  -2  -4  -6  176.35   21.38
  -2   4  -7   23.18    9.54
   2   4   7   17.55    9.07
  -2  -4  -7   10.19    6.01
   2   4   8  735.20   47.82
  -2  -4  -8  681.13   41.84
  -2   4  -8  628.53   44.55
  -2  -4  -9  272.30   26.64
   2   4   9  222.37   27.20
  -2   4  -9  210.20   26.81
   2   4  10   25.65   10.00
  -2   4 -10   26.87   10.12
  -2   4 -11   47.62   13.55
   2   4  11   25.51    9.94
   2  -4  12  688.17   17.82
   2   4  12  734.86   52.68
  -2   4 -12  688.70   50.71
   2  -4  12  667.67   17.64
  -2   4 -13   53.44   16.00
   2   4  13   52.35   15.69
  -2   4 -14   20.26    8.33
   2   4  14   13.69   11.44
   2   4  15   21.10   10.38
  -2   4 -15   12.80   10.39
   2   4  16  223.84   32.69
  -2   4 -16  206.06   30.63
   2   4  17   46.06   15.82
  -2   4 -17   68.12   18.53
   2   4  18   -5.94    5.37
  -2   4 -18   -7.14    7.27
   2   4  19    4.30    9.18
  -2   4 -19   -4.24    7.04
  -2   4 -20  -15.55    9.60
  -2   4 -21   50.47   17.85
   2   5 -21   27.69   11.37
   2   5 -20  277.91   34.23
   2   5 -19   60.70   16.17
   2   5 -19   35.86   12.86
  -2   5  19   43.11   17.69
   2   5 -18   13.77    8.52
   2   5 -18   -6.03    6.77
  -2   5  18    6.22    7.28
   2   5 -17   27.94   10.92
   2   5 -17   17.93    8.69
  -2   5  17   14.65   10.67
   2   5 -16    1.95    4.54
   2   5 -16   -1.08    4.53
  -2   5  16   -6.91    6.72
   2   5 -15  182.65   26.71
  -2   5  15  183.54   28.28
   2   5 -15  194.93   25.77
   2   5 -14   50.66   13.02
   2   5 -14   52.71   14.68
  -2   5  14   33.68   13.02
   2   5 -13   31.64   11.21
   2   5 -13   30.18    9.97
  -2   5  13   11.34    6.70
   2   5 -12   20.29    8.48
   2   5 -12   52.72   15.38
  -2   5  12   31.61   12.49
   2  -5 -11   79.75   11.68
   2   5 -11   53.64   13.50
   2   5 -11   67.84   15.97
  -2   5  11   55.96   14.58
  -2   5  10  728.48   48.22
   2   5 -10  807.52   47.43
   2   5 -10  829.88   52.82
  -2   5  10  865.20   36.31
   2  -5  -9    4.87    3.61
  -2   5   9    5.04    3.80
   2   5  -9   -0.21    6.25
   2   5  -9    1.60    5.16
  -2   5   9   -2.22    7.12
  -2   5   8  152.58   20.63
  -2   5   8  158.11   17.08
  -2   5   8  149.49   19.99
   2   5  -8  173.88   23.85
   2   5  -8  170.76   21.43
   2  -5  -8  101.27   14.43
  -2   5   7   42.40    9.55
   2  -5  -7   28.64    8.34
  -2   5   7   22.83    7.65
   2   5  -7   36.71   10.18
  -2   5   7   38.51   10.26
   2  -5  -6   10.44    6.07
   2  -5  -6   10.56    5.96
  -2   5   6    4.25    3.62
   2   5  -6    3.14    5.05
  -2   5   6    6.39    4.22
  -2   5   6   14.87    6.71
   2  -5  -5   85.18   14.50
   2  -5  -5  150.75   18.52
  -2   5   5  135.31   16.88
   2   5  -5  144.98   19.69
  -2   5   5  135.12   17.23
  -2   5   5  134.46   17.10
   2  -5  -4   -3.58    3.14
  -2   5   4   -7.15    4.27
   2   5  -4    0.97    5.13
  -2   5   4    0.13    3.96
  -2   5   4   -0.19    3.94
  -2   5   3    3.89    3.23
   2  -5  -3    8.57    5.46
   2  -5  -3    0.07    2.70
   2   5  -3   -4.66    5.70
  -2   5   3   -1.98    2.85
  -2   5   3    0.14    5.45
  -2   5   2  157.67   15.27
   2  -5  -2  121.05   18.30
   2  -5  -2  152.72   15.79
  -2   5   2  124.13   13.73
   2   5  -2  143.95   19.82
  -2   5   2  161.94   20.51
  -2   5   1  488.70   24.99
   2  -5  -1  456.57   25.17
  -2   5   1  517.42   37.13
   2  -5  -1  548.53   39.76
   2   5  -1  481.47   36.63
  -2   5   1  512.44   25.08
   2   5   0  664.31   43.29
  -2   5   0  693.00   27.06
  -2   5   0  692.52   43.86
  -2   5   0  723.55   26.17
  -2   5  -1    4.28    2.10
   2   5   1    8.34    7.63
  -2   5  -1    5.23    1.93
  -2   5  -1    9.47    8.36
  -2   5  -2  740.07   46.68
   2   5   2  678.56   45.12
   2   5   3    3.10    5.79
  -2   5  -3   13.77    7.47
   2   5   4  228.17   26.79
  -2   5  -4  162.04   22.95
   2   5   5  318.84   32.39
  -2   5  -5  331.40   33.28
  -2   5  -6  280.07   31.24
   2   5   6  253.69   29.48
   2   5   7  156.46   23.63
  -2   5  -7  175.84   24.52
  -2   5  -8  630.65   48.59
   2   5   8  660.43   48.37
   2   5   9   -3.56    6.76
  -2   5  -9    3.27    6.26
   2   5  10   85.10   18.91
  -2   5 -10   61.12   16.79
   2   5  11  398.96   40.57
  -2   5 -11  388.10   40.49
   2   5  12  159.92   26.50
  -2   5 -12  177.58   28.41
   2   5  13    4.40    9.48
  -2   5 -13    0.93    4.88
   2   5  14    0.22    5.66
  -2   5 -14    1.35    7.17
   2   5  15   -8.90   10.87
  -2   5 -15    1.67    5.65
   2   5  16  -21.80   12.18
  -2   5 -16   -4.40    6.68
   2   5  17  118.09   24.64
  -2   5 -17  116.41   23.37
  -2   5 -18   47.27   15.25
   2   6 -19    4.92    6.54
   2   6 -18   15.32    9.32
   2   6 -17  -19.23   10.69
  -2   6  17    6.16    5.78
   2   6 -16   -6.57    8.47
   2   6 -16   -1.92    4.25
  -2   6  16   12.23   12.07
   2   6 -15   20.09   10.77
   2   6 -15    9.44    6.49
  -2   6  15   21.59   11.12
   2   6 -14   -5.87    5.40
   2   6 -14    8.10    9.62
  -2   6  14    9.38    7.75
   2   6 -13  127.11   20.66
   2   6 -13   94.75   20.53
  -2   6  13  101.12   21.16
   2   6 -12   55.65   13.78
   2   6 -12   37.98   12.67
  -2   6  12   43.01   14.34
  -2   6  11  266.25   31.94
   2   6 -11  242.46   31.57
   2   6 -11  226.62   27.03
   2   6 -10    9.25    6.64
   2   6 -10   10.78    7.63
  -2   6  10   17.03    6.95
  -2   6  10   12.04    8.75
  -2   6   9   10.13    8.92
   2   6  -9    2.87    6.48
  -2   6   9   -6.49    4.67
   2   6  -9    5.21    4.73
   2  -6  -8   18.89    7.30
   2   6  -8   18.80    8.02
  -2   6   8   11.85    5.76
  -2   6   8   16.25    8.72
  -2   6   7  220.47   25.07
  -2   6   7  230.55   23.98
   2   6  -7  220.08   25.19
   2  -6  -7  238.79   26.15
  -2   6   6  296.19   28.08
   2  -6  -6  290.35   28.42
  -2   6   6  294.25   27.95
   2   6  -6  286.85   28.88
  -2   6   6  302.46   27.86
   2   6  -5  205.30   25.01
   2  -6  -5  202.28   22.62
  -2   6   5  234.50   23.89
  -2   6   5  198.08   21.94
  -2   6   5  253.36   25.94
  -2   6   4   41.54   10.48
   2   6  -4   48.33   13.07
  -2   6   4   50.04   10.43
   2  -6  -4   44.22   10.10
  -2   6   4   53.91   12.78
  -2   6   3   51.91   10.84
  -2   6   3   63.45   11.06
   2   6  -3   33.90    9.98
  -2   6   3   50.63   12.88
  -2   6   2  422.90   26.90
  -2   6   2  531.88   30.57
   2   6  -2  490.27   39.08
  -2   6   2  529.03   40.63
  -2   6   1   10.04    4.90
   2  -6  -1   -1.23    2.07
   2   6  -1   13.67    7.06
  -2   6   1   12.30    4.44
  -2   6   1   12.57    7.17
   2  -6   0  121.82   13.56
  -2   6   0  185.99   15.96
  -2   6   0  192.99   25.36
   2   6   0  190.18   25.20
  -2   6   0  147.71   12.96
   2   6   1   53.64   14.90
  -2   6  -1   38.46    7.02
   2  -6   1   33.85    6.42
  -2   6  -1   27.00    4.82
  -2   6  -1   44.92   12.10
   2  -6   2   62.91    7.89
   2   6   2  100.00   18.94
  -2   6  -2   96.73   18.45
   2   6   3   44.33   14.19
  -2   6  -3   41.33   12.71
   2   6   4   93.77   19.13
  -2   6  -4   73.61   17.25
   2   6   5   79.63   17.80
  -2   6  -5   77.15   17.34
   2   6   6   53.28   15.63
  -2   6  -6   57.78   15.68
   2   6   7  270.42   33.01
  -2   6  -7  247.54   32.69
   2   6   8  106.48   21.13
  -2   6  -8  105.83   22.09
   2   6   9    2.99    8.38
  -2   6  -9   11.36    8.37
   2   6  10   23.36   12.28
  -2   6 -10   31.42   12.28
   2   6  11   37.50   14.78
  -2   6 -11   60.39   17.52
   2   6  12   25.66   12.44
  -2   6 -12   33.51   15.34
   2   6  13  121.00   26.23
  -2   6 -13  125.13   25.86
   2   6  14    0.59    5.66
  -2   6 -14   13.17    9.72
  -2   6 -15   45.60   16.71
  -2   7  15   47.64   16.93
   2   7 -14    6.93    7.68
  -2   7  14   -9.13    7.82
   2   7 -13  -13.67    9.20
  -2   7  13   20.02   13.00
   2   7 -12    3.24    7.50
   2   7 -12  -22.08   11.52
  -2   7  12   -8.20    6.86
  -2   7  11  147.97   25.47
   2   7 -11  109.73   18.91
   2   7 -11  164.05   28.14
   2   7 -10   50.09   13.02
  -2   7  10   47.36   14.34
  -2   7   9   61.24   15.41
   2   7  -9   64.60   15.15
  -2   7   9   63.22   13.00
  -2   7   8   54.37   13.93
   2   7  -8   83.28   16.36
  -2   7   8   52.97   12.18
  -2   7   7    8.14    6.17
   2   7  -7   11.82    5.82
  -2   7   7   16.05    8.28
  -2   7   6    5.09    6.45
   2   7  -6    5.32    5.85
  -2   7   6   -0.12    4.35
  -2   7   5   -4.59    5.04
   2   7  -5    3.40    4.75
  -2   7   5   -5.90    5.93
  -2   7   4    1.95    3.91
   2   7  -4    9.44    6.76
  -2   7   4    4.78    5.30
  -2   7   3   -3.12    4.53
   2   7  -3   -2.87    5.21
  -2   7   3  -10.94    8.14
   2   7  -2   -5.73    8.36
  -2   7   2   -2.38    3.88
  -2   7   2    8.26    7.40
   2   7  -1  105.14   19.39
  -2   7   1  110.08   14.74
  -2   7   1  139.48   22.68
  -2   7   0   14.11    6.07
   2   7   0   14.12    9.95
  -2   7   0    9.96    7.10
  -2   7  -1  420.08   41.05
   2   7   1  329.47   36.01
   2   7   2   20.19    9.99
  -2   7  -2   18.33    9.62
   2   7   3   66.00   17.41
  -2   7  -3   64.07   16.64
   2   7   4  223.92   30.59
  -2   7  -4  255.40   33.70
   2   7   5    2.55    7.35
  -2   7  -5   19.52   10.07
   2   7   6  209.61   30.67
  -2   7  -6  227.94   32.79
   2   7   7   -1.75    6.99
  -2   7  -7    1.99    5.43
   2   7   8    1.68    6.67
  -2   7  -8   12.94    8.50
   2   7   9   30.44   13.39
  -2   7  -9   40.57   15.08
   2   7  10   37.85   14.45
  -2   7 -10   45.59   15.78
   2   7  11   67.19   18.83
  -2   7 -11   37.48   13.87
  -2   8  13  164.71   29.53
  -2   8  12   12.10    8.97
  -2   8  11   60.32   18.14
  -2   8  10   14.37    9.45
  -2   8   9   12.52    8.77
  -2   8   8   18.82   10.57
  -2   8   7   29.99   10.86
   2   8  -7   16.68    8.94
  -2   8   7   27.29   10.19
   2   8  -6   -1.39    6.78
  -2   8   6   10.96    6.39
   2   8  -5    4.15    5.34
  -2   8   5    4.52    5.14
   2   8  -4   60.96   16.33
  -2   8   4   70.38   17.00
   2   8  -3   25.29   10.58
  -2   8   3    9.59    7.40
   2   8  -2   -7.15    7.02
  -2   8   2   -4.81    6.02
   2   8  -1   -8.24    6.96
  -2   8   1   -0.04    7.49
   2   8   0  109.05   21.49
  -2   8   0  124.60   23.38
   2   8   1   -3.21    6.32
  -2   8  -1   -7.60    7.24
   2   8   2  122.62   23.79
  -2   8  -2  140.53   26.72
   2   8   3   55.55   17.48
  -2   8  -3   36.74   13.61
   2   8   4   41.92   15.43
  -2   8  -4   42.03   14.34
   2   8   5    5.49    8.24
  -2   8  -5   22.36   11.13
   2   8   6   32.87   13.64
   2   8   7    8.82    8.78
  -2   9   5  -16.54    8.75
  -2   9   4   27.90   13.45
  -2   9   3   -0.28    1.68
  -2   9   2  -27.25   11.79
   2   9  -1    1.79    5.86
   2   9   0  -26.77   11.85
   2   9   1  -20.88   10.58
  -3   0  22    2.06    5.53
  -3   0  21  101.43   24.09
  -3   0  20    1.32    8.17
  -3   0  19   26.04   12.81
  -3   0  18   -3.70    6.03
  -3   0  17   37.15   13.06
   3   0 -16   -3.92    5.75
  -3   0  16   -1.13    1.40
  -3   0  15    1.57    1.63
   3   0 -15    6.98    7.97
   3   0 -14    0.65    3.99
  -3   0  14    1.26    2.42
   3   0 -13  238.11   28.00
  -3   0  13  244.52   15.62
  -3   0  12    0.41    2.68
   3   0 -12    2.18    5.52
   3   0 -11  939.05   51.53
  -3   0  11  832.30   30.33
   3   0 -10   -5.35    5.64
  -3   0  10   -0.94    2.50
  -3   0  10    0.81    3.33
   3   0  -9   83.87   14.52
  -3   0   9   97.01   15.41
  -3   0   8    2.08    4.25
   3   0  -8   -0.35    3.72
   3   0  -7    3.99    4.50
  -3   0   7    2.63    3.19
   3   0  -6   -1.13    3.50
  -3   0   6   -1.66    3.11
   3   0  -5   11.38    5.50
  -3   0   5   12.36    5.47
   3   0  -4   -0.79    3.88
  -3   0   4   -2.95    4.24
  -3   0   3 1301.72   48.05
   3   0  -3 1156.67   45.62
  -3   0   2   -0.77    3.63
   3   0  -2   -1.10    3.70
   3   0  -1 1189.39   44.70
  -3   0   1 1252.71   42.16
  -3   0   0   -0.11    3.01
   3   0   0    0.94    4.20
   3   0   1 1468.47   49.80
  -3   0  -1 1489.36   45.20
  -3   0  -2    1.65    3.51
   3   0   2    4.03    4.83
  -3   0  -3 2039.78   53.09
   3   0   3 1975.70   52.70
  -3   0  -4   -1.45    3.47
   3   0   4   -4.89    4.63
  -3   0  -5  404.05   24.78
   3   0   5  355.98   23.28
   3   0   6   -0.23    3.70
  -3   0  -6    0.42    2.57
  -3   0  -7 2218.45   61.22
   3   0   7 2133.29   60.25
   3   0   8    0.78    4.04
  -3   0  -8   -5.11    4.54
   3   0   9   79.91   12.79
  -3   0  -9   84.58   12.73
   3   0  10    1.62    5.13
  -3   0 -10  -14.24    6.07
   3   0  11   20.17    7.42
  -3   0 -11   16.80    7.61
  -3   0 -11    1.46    2.96
   3   0  12   -0.90    4.72
  -3   0 -12    6.60    5.50
  -3   0 -12    1.87    3.31
   3   0  13   15.14    7.14
  -3   0 -13   19.68    8.57
  -3   0 -13    9.17    5.32
   3   0  14    0.46    4.99
  -3   0 -14   -2.05    4.97
   3   0  15  384.64   33.46
  -3   0 -15  381.72   37.69
   3   0  16    9.17    7.59
  -3   0 -16   -0.89    5.36
   3   0  17  284.66   30.89
  -3   0 -17  357.69   37.44
   3   0  18   -1.40    4.55
  -3   0 -18   13.19   10.45
   3   0  19   67.61   16.34
  -3   0 -19   96.78   20.15
   3   0  20    3.94    7.94
  -3   0 -20   -6.81    6.72
  -3   0 -21   18.03   10.36
  -3  -1  22  -17.13   11.59
  -3   1  22    3.11    8.59
  -3  -1  21  -15.87   10.33
  -3   1  21   16.22   10.66
  -3  -1  20   17.42   10.52
  -3   1  20    9.60    8.93
  -3  -1  19  159.65   27.61
  -3   1  19  171.02   29.08
  -3   1  18   35.91   13.24
   3   1 -18   23.42   10.04
  -3   1  17   36.33   13.25
   3   1 -17   28.79   12.30
  -3  -1  16   10.75    4.38
   3   1 -16    8.02    5.97
  -3   1  16   17.91   10.88
   3   1 -15    2.51    4.27
  -3   1  15    8.06    7.59
  -3  -1  15    3.41    2.42
   3   1 -14  472.98   40.27
  -3   1  14  433.55   39.28
  -3  -1  14  470.70   26.88
  -3   1  13   59.10   14.77
   3  -1 -13   37.13   12.10
   3   1 -13   56.22   14.23
  -3   1  13   42.11    4.00
  -3   1  13   41.91    4.22
  -3  -1  13   33.20    7.44
  -3   1  12    7.72    2.85
   3   1 -12   14.57    7.68
   3  -1 -12   -1.17    5.32
  -3   1  12    7.69    2.46
  -3  -1  12    8.26    4.34
   3  -1 -11   28.73   10.28
  -3   1  11   31.89    5.17
  -3  -1  11   30.85    7.47
   3   1 -11   17.80    9.19
  -3   1  10   37.66   10.04
   3  -1 -10   36.28   10.27
  -3  -1  10   30.66    9.44
   3   1 -10   47.46   12.03
  -3  -1  10   38.84    8.34
  -3   1   9   25.32    8.26
   3   1  -9   33.20   10.09
  -3  -1   9   35.68    7.90
   3  -1  -9   36.27    9.59
   3  -1  -8  989.34   48.53
  -3  -1   8 1046.78   40.57
   3   1  -8 1001.20   49.55
   3   1  -7    7.79    4.21
   3  -1  -7   17.49    7.63
  -3   1   7    7.94    4.52
   3   1  -6   -5.83    4.73
   3  -1  -6   -2.47    3.22
   3   1  -5  418.68   30.06
  -3   1   5  425.22   27.77
   3  -1  -5  438.05   28.77
  -3   1   4   99.99   13.47
   3   1  -4   99.65   14.74
   3  -1  -4   93.74   13.57
  -3   1   3  313.35   22.64
   3   1  -3  277.17   23.86
   3  -1  -3  278.29   21.43
  -3  -1   3  313.22   23.74
   3  -1  -2   62.33   10.75
  -3  -1   2   67.14   11.22
   3   1  -2   68.46   12.42
  -3   1   2   75.38   10.99
  -3   1   1 2025.33   53.61
   3   1  -1 2015.11   63.91
  -3  -1   1 2176.15   61.17
   3  -1  -1 2039.59   55.27
   3   1   0    1.52    4.26
  -3  -1   0   -0.34    3.70
  -3   1   0    6.13    3.45
   3  -1   0    4.39    3.13
   3   1   1  153.81   17.68
  -3  -1  -1  156.55   16.39
  -3   1  -1  159.05   13.04
   3  -1   1  131.33   13.94
  -3  -1  -2  976.41   40.90
  -3   1  -2  974.78   31.08
   3  -1   2  994.12   36.86
   3   1   2  956.20   40.87
  -3   1  -3  909.30   30.35
  -3  -1  -3  978.20   41.61
   3  -1   3  896.59   35.32
   3   1   3  878.83   40.01
  -3   1  -4  291.89   17.31
  -3  -1  -4  301.42   23.62
   3  -1   4  260.55   19.22
   3   1   4  268.14   22.71
  -3   1  -5  388.80   20.45
  -3  -1  -5  440.67   28.99
   3   1   5  407.03   28.30
   3  -1   5  432.56   21.59
   3   1   6    4.68    5.28
   3  -1   6    7.08    3.36
  -3   1  -6    6.96    3.81
  -3  -1  -6   12.72    5.91
  -3   1  -7   93.14   16.86
  -3   1  -7  105.22   11.64
  -3  -1  -7  108.26   15.29
   3   1   7  106.38   15.46
   3  -1   7   90.81   10.78
  -3   1  -8   53.34   12.86
   3   1   8   52.21   11.52
  -3  -1  -8   55.05   11.83
   3  -1   8   58.68    9.19
  -3   1  -8   62.18    9.23
  -3   1  -9   73.86   15.65
   3   1   9   72.25   13.36
  -3   1  -9   84.38   11.49
   3  -1   9   80.32   11.06
  -3  -1  -9   48.58   11.07
  -3   1 -10  430.83   37.48
  -3   1 -10  445.97   27.22
  -3  -1 -10  330.31   28.99
   3   1  10  422.93   32.21
   3  -1  10  434.78   26.30
  -3   1 -11 1361.09   49.54
  -3  -1 -11 1323.41   59.62
   3   1  11 1311.73   58.36
   3  -1  11 1245.03   46.12
  -3   1 -11 1226.85   64.40
   3   1  12   24.44    8.45
   3  -1  12   29.63    8.31
  -3   1 -12   45.27   14.14
  -3   1 -12   20.02    6.94
   3   1  13   12.32    5.75
   3  -1  13   13.58    5.56
  -3   1 -13    6.43    6.38
  -3   1 -13   23.09    7.09
  -3   1 -14  236.93   23.23
   3  -1  14  149.10   18.26
   3   1  14  211.42   25.69
  -3   1 -14  218.76   29.31
  -3  -1 -14  253.53   29.75
   3  -1  15  163.27   19.85
   3   1  15  227.08   27.68
  -3   1 -15  217.67   29.28
  -3  -1 -15  167.76   25.04
   3  -1  16   13.24    6.62
   3   1  16   36.31   12.63
  -3   1 -16   36.47   12.69
  -3  -1 -16    5.43    6.92
   3  -1  17   28.33   10.28
   3   1  17   29.74   12.47
  -3   1 -17   10.84    8.33
  -3  -1 -17   21.91   10.16
   3  -1  18   92.48   16.68
   3   1  18   93.53   19.61
  -3   1 -18  103.89   21.22
  -3  -1 -18   96.44   20.18
   3   1  19   23.70   10.77
  -3   1 -19   -8.47    9.46
  -3  -1 -19   10.55    7.76
  -3   1 -20   18.04    9.94
   3   1  20    7.80    7.31
  -3  -1 -20   32.05   12.44
  -3   1 -21  143.06   26.39
   3   1  21  148.20   25.97
  -3  -2  22   83.46   22.84
  -3  -2  21   29.66   14.48
  -3   2  21   -9.61    8.81
  -3   2  20  116.90   25.06
   3   2 -19   32.20   12.76
  -3   2  19   42.53   14.91
   3   2 -18  340.89   38.09
  -3   2  18  301.78   38.13
  -3   2  17   -7.43    7.94
   3   2 -17   -3.23    7.27
   3   2 -16  267.68   32.48
  -3   2  16  261.31   33.41
  -3  -2  16  267.67   23.85
  -3   2  15   36.28   12.50
   3   2 -15   44.04   13.31
  -3  -2  15   31.07    8.60
   3   2 -14    9.60    6.51
  -3   2  14   11.82    6.66
  -3  -2  14   10.61    5.55
   3   2 -13    1.76    5.86
  -3   2  13   26.38   11.67
  -3  -2  13   17.76    6.99
  -3   2  12  446.66   38.35
  -3  -2  12  536.52   33.04
   3   2 -12  475.06   38.25
  -3   2  11    3.32    2.13
  -3   2  11    4.78    7.18
   3   2 -11    0.31    5.55
  -3  -2  11    0.16    3.34
  -3   2  10  659.07   43.10
  -3  -2  10  694.90   37.04
  -3   2  10  698.86   24.68
  -3   2  10  759.56   45.35
   3   2 -10  683.60   43.95
   3  -2  -9  284.10   27.30
  -3   2   9  268.61   26.33
  -3  -2   9  332.07   29.95
  -3  -2   9  291.85   24.02
  -3   2   9  315.07   18.28
  -3   2   9  264.63   25.85
   3   2  -9  283.72   27.78
  -3   2   8   26.50    5.83
   3   2  -8   19.34    8.33
  -3   2   8   31.55    8.63
  -3  -2   8   30.40    9.39
  -3   2   8   22.13    6.93
   3  -2  -8   32.90    9.67
  -3  -2   8   15.49    5.63
   3  -2  -7   24.29    7.76
  -3   2   7   27.32    7.97
  -3   2   7   21.16    5.59
  -3   2   7   16.93    6.99
  -3  -2   7   35.19    8.73
   3   2  -7   24.74    8.28
   3  -2  -6  631.22   36.17
  -3  -2   6  679.17   36.58
   3   2  -6  630.41   38.89
  -3   2   6  653.94   31.32
  -3   2   5   66.57   11.46
  -3  -2   5   62.21   11.62
   3   2  -5   48.23   11.64
  -3   2   5   81.03   12.29
   3  -2  -5   87.44   13.31
   3  -2  -4 2795.13   70.23
   3   2  -4 2701.36   79.08
  -3   2   4 2782.95   67.83
  -3   2   4 2850.54   70.37
  -3   2   3   12.93    6.45
   3  -2  -3   10.46    4.96
   3   2  -3   10.43    6.90
  -3   2   3   17.28    5.91
  -3   2   2  355.70   26.61
   3   2  -2  374.15   29.36
  -3   2   2  402.08   23.83
  -3  -2   2  388.25   28.45
   3  -2  -2  377.04   23.37
   3   2  -1  122.09   16.57
  -3   2   1  127.15   13.10
  -3  -2   1  141.62   17.38
  -3   2   1  126.81   16.57
   3  -2  -1  127.51   12.93
  -3   2   0  378.62   29.07
   3   2   0  360.70   28.50
  -3  -2   0  311.41   25.26
   3  -2   0  388.60   21.80
  -3   2  -1   10.99    5.93
  -3  -2  -1    6.99    4.72
   3  -2   1    5.26    3.50
  -3   2  -1    4.33    1.79
   3   2   1    0.30    5.79
   3  -2   2  184.58   13.89
  -3  -2  -2  191.46   20.33
  -3   2  -2  201.65   11.25
  -3   2  -2  204.63   22.35
   3   2   2  190.39   20.52
   3   2   3  150.51   18.43
  -3   2  -3  157.15    9.43
  -3  -2  -3  153.71   18.49
   3  -2   3  139.36   11.73
  -3   2  -3  187.13   22.41
  -3   2  -4    3.56    6.34
   3   2   4    5.88    4.18
   3  -2   4    0.20    2.57
  -3   2  -4    4.12    1.80
   3   2   5  131.48   17.70
  -3   2  -5  162.14    9.45
  -3  -2  -5  131.28   17.49
   3  -2   5  147.61   12.00
  -3   2  -6  125.52    8.64
   3  -2   6  104.96   10.46
   3   2   6  119.15   17.53
  -3  -2  -6  108.42   16.49
  -3   2  -7  414.02   16.87
  -3  -2  -7  433.27   32.82
   3  -2   7  429.99   21.74
   3   2   7  414.01   32.81
  -3   2  -7  341.90   32.41
  -3   2  -8  437.70   18.74
   3   2   8  398.74   32.39
  -3   2  -8  440.46   37.64
   3  -2   8  423.62   17.90
   3  -2   9  290.61   16.08
   3   2   9  252.64   26.37
  -3   2  -9  261.88   29.86
  -3   2 -10 1051.03   60.03
   3   2  10 1126.37   56.46
   3  -2  10 1125.88   34.33
  -3   2 -11   43.59   13.66
   3   2  11   45.22   12.19
   3  -2  11   38.44    6.86
  -3   2 -12  130.15   21.66
   3   2  12   92.03   18.16
   3  -2  12   97.33   11.72
  -3   2 -13    7.41    7.94
   3   2  13    5.19    6.06
   3  -2  13    0.67    2.39
   3   2  14  495.85   42.40
   3  -2  14  517.31   29.60
  -3   2 -14  416.43   40.79
  -3   2 -15   27.31   10.47
   3   2  15   24.28   10.38
   3  -2  15   40.51    9.35
  -3   2 -16   39.63   13.92
   3   2  16   71.02   17.62
  -3   2 -17    8.81    4.87
   3   2  17   -9.47    9.68
   3   2  18   80.96   18.73
  -3  -2 -18   93.83   19.41
  -3   2 -19   35.73   12.81
   3   2  19   34.45   14.42
  -3  -2 -19   24.36    9.80
  -3   2 -20   19.50   10.44
   3   2  20   23.13   11.57
  -3   2 -21   -3.80    6.40
   3   2  21  -19.83   11.08
  -3  -3  22   -6.22    8.17
  -3   3  21   56.45   18.52
  -3   3  20   39.25   16.01
   3   3 -20   38.94   13.22
   3   3 -19    2.68    5.76
  -3   3  19   -8.74   12.41
   3   3 -18   26.69   10.80
  -3   3  18   15.81   11.88
   3   3 -17  252.72   32.17
  -3   3  17  221.56   32.31
   3   3 -16    9.86    4.76
  -3   3  16    5.35    6.82
   3   3 -15    7.46    6.49
  -3   3  15   -4.72    6.87
  -3   3  14 1180.13   67.60
   3   3 -14 1184.44   65.16
  -3   3  13  426.19   39.28
   3   3 -13  469.98   39.63
   3   3 -12    2.88    4.96
  -3   3  12    2.70    1.05
   3   3 -11   15.56    9.11
  -3   3  11   -1.67    5.25
  -3  -3  11    5.47    6.48
  -3   3  11    2.81    1.69
   3   3 -10   15.63    7.55
  -3   3  10   15.35    8.15
  -3  -3  10   17.14    7.24
  -3   3  10   23.81    5.30
  -3   3   9  667.57   42.34
  -3   3   9  730.78   29.39
   3   3  -9  690.58   44.91
  -3   3   9  742.47   43.82
  -3   3   8 2165.54   73.07
  -3  -3   8 2000.72   69.74
   3   3  -8 2127.67   77.64
  -3   3   7   39.14    8.25
  -3   3   7   42.34   10.02
  -3   3   7   28.20    9.16
   3   3  -7   31.39    9.55
  -3  -3   7   18.21    6.74
  -3   3   6  168.57   18.82
  -3  -3   6  136.84   18.05
   3   3  -6  130.32   18.50
  -3   3   6  161.18   16.41
  -3   3   6  171.72   18.74
  -3   3   5  143.94   16.47
  -3  -3   5  171.66   20.36
   3   3  -5  140.78   19.44
  -3  -3   5  155.92   20.24
  -3   3   5  172.79   17.96
  -3   3   5  181.31   18.35
  -3   3   4   36.04    8.88
  -3  -3   4   31.92   10.04
   3   3  -4   25.04    9.24
  -3   3   4   27.04    7.27
  -3  -3   4   39.97   10.20
  -3   3   4   36.60    8.00
  -3   3   3   59.25   11.23
  -3  -3   3   40.11   10.73
   3   3  -3   50.05   11.81
  -3   3   3   54.18    9.18
  -3  -3   3   70.90   13.54
  -3   3   3   40.24    7.71
  -3   3   2  135.82   13.10
   3   3  -2  151.05   20.13
  -3  -3   2  163.29   20.46
  -3  -3   2  145.57   18.75
  -3   3   2  144.15   13.87
  -3   3   2  124.70   16.69
  -3   3   1  220.82   14.73
   3   3  -1  191.16   22.37
  -3  -3   1  234.63   23.99
  -3   3   1  219.12   16.20
  -3   3   1  193.38   21.10
  -3   3   0   33.66    9.25
  -3  -3   0   33.21    9.87
  -3   3   0   24.27    5.29
   3   3   0   28.00    8.88
  -3   3   0   35.35    5.38
   3  -3   0   31.94    6.04
  -3  -3  -1    9.08    6.31
   3  -3   1   17.11    4.41
  -3   3  -1   13.25    2.64
   3   3   1    8.03    6.61
  -3   3  -1   19.17    3.24
   3  -3   2  471.15   18.46
  -3  -3  -2  493.29   35.33
  -3   3  -2  476.52   35.81
   3   3   2  438.26   33.73
   3  -3   3  767.12   20.70
   3   3   3  687.56   42.59
  -3   3  -3  774.89   46.76
   3  -3   4  561.19   14.93
   3   3   4  590.14   39.94
  -3   3  -4  581.07   41.49
  -3   3  -5   27.36   10.44
   3   3   5   17.88    7.86
  -3   3  -6   72.14   15.74
   3   3   6   51.31   12.83
  -3   3  -7    8.92    6.53
   3   3   7   12.17    7.01
  -3   3  -8    0.79    6.11
   3   3   8   10.78    8.35
  -3   3  -9  125.34   21.38
   3   3   9  153.13   22.71
   3  -3   9  140.51    7.70
   3  -3   9  105.50    6.64
   3   3  10  162.30   22.90
   3  -3  10  149.18    9.59
  -3   3 -10  187.70   27.30
   3  -3  11  260.21   13.93
   3   3  11  220.17   27.91
  -3   3 -11  255.58   31.75
   3  -3  11  245.11   13.42
  -3   3 -12   51.11   14.97
   3   3  12   38.53   12.94
  -3   3 -13   21.58    9.84
   3   3  13   19.02    9.45
   3   3  14  366.68   38.97
  -3   3 -14  332.70   37.83
  -3   3 -15    0.90    6.78
   3   3  15    8.01    8.11
  -3   3 -16   -0.62    9.74
   3   3  16    7.55    6.47
  -3   3 -17    5.81    8.55
   3   3  17   -0.85    7.13
  -3   3 -18   36.20   12.31
   3   3  18   39.34   14.42
  -3   3 -19   90.61   21.12
   3   3  19   74.60   19.74
  -3   3 -20  162.80   29.61
   3   4 -21   80.34   20.53
   3   4 -20    6.47    7.21
  -3   4  20  -12.41    9.55
   3   4 -19  123.77   23.53
  -3   4  19  144.46   27.66
   3   4 -18   20.87   10.23
  -3   4  18    8.01    7.20
   3   4 -17   16.39   10.95
  -3   4  17    3.12    7.36
   3   4 -16   33.40   12.89
  -3   4  16   30.04   13.18
  -3   4  15   95.58   20.57
   3   4 -15  114.51   20.99
  -3   4  14   53.89   15.25
   3   4 -14   75.97   16.41
   3   4 -13   93.99   17.99
  -3   4  13  118.39   21.93
   3   4 -12    6.18    6.53
  -3   4  12    1.34    5.11
  -3   4  12    2.34    1.52
  -3   4  11  209.36   26.35
  -3   4  11  279.99   17.19
   3   4 -11  225.77   27.56
   3   4 -10    1.41    4.26
  -3   4  10    2.18    5.69
  -3   4  10   -0.34    2.05
  -3   4   9  474.77   37.34
  -3   4   9  597.43   30.23
   3   4  -9  533.89   40.96
  -3   4   8   77.19   15.32
  -3   4   8   92.02   12.74
   3   4  -8   56.04   13.27
  -3   4   8  115.47   17.31
  -3   4   7  -11.83    5.64
  -3   4   7    6.45    6.32
   3   4  -7   -0.17    5.07
  -3   4   7   -0.40    3.39
  -3   4   6    1.63    3.41
   3   4  -6   -1.60    5.92
  -3   4   6    2.94    3.91
  -3   4   6    0.22    2.98
  -3   4   5   65.47   11.62
  -3   4   5   63.78   11.14
   3   4  -5   49.06   12.53
  -3   4   5   52.31   10.20
  -3   4   4  347.97   24.50
   3   4  -4  336.84   31.24
  -3   4   4  356.26   28.30
  -3   4   4  358.90   25.36
  -3   4   3  196.21   17.14
   3   4  -3  180.00   23.56
  -3   4   3  213.61   22.27
  -3   4   3  204.59   17.94
  -3   4   2   29.31    9.19
   3   4  -2   26.88   10.43
  -3   4   2   27.34    6.23
  -3   4   2   38.25    7.24
  -3   4   1  507.62   21.90
   3   4  -1  479.38   37.33
  -3   4   1  523.56   23.96
  -3   4   1  588.69   39.39
  -3   4   0  131.62    9.37
   3   4   0  123.88   19.53
  -3   4   0  125.36   10.66
  -3   4   0  121.19   18.88
  -3   4  -1  318.17   30.56
   3   4   1  323.77   31.13
  -3   4  -2 1006.47   55.02
   3   4   2 1062.67   56.75
  -3   4  -3  303.67   31.00
   3   4   3  262.51   28.67
   3   4   4  619.94   44.27
  -3   4  -4  656.62   46.63
  -3   4  -5   48.87   13.91
   3   4   5   35.92   11.73
  -3   4  -6   11.29    6.87
   3   4   6   12.45    8.38
  -3   4  -7  156.85   23.78
   3   4   7  146.74   23.03
  -3   4  -8   87.27   18.49
   3   4   8   97.25   19.52
   3   4   9  380.16   37.90
  -3   4  -9  412.16   40.68
  -3   4 -10   86.99   19.34
   3   4  10  110.89   21.04
  -3   4 -11   15.10    9.73
   3   4  11   12.38    8.43
  -3   4 -12   -0.75    6.66
   3   4  12    3.20    7.09
  -3   4 -13  159.84   27.54
   3   4  13  146.95   25.89
  -3   4 -14  201.61   30.99
   3   4  14  195.39   29.90
  -3   4 -15   79.58   20.12
   3   4  15   82.42   20.21
  -3   4 -16   12.36    9.67
   3   4  16   19.41   11.11
  -3   4 -17   -6.12    7.60
   3   4  17   13.43    9.29
  -3   4 -18   40.41   15.35
   3   5 -21   33.49   13.67
   3   5 -20   11.56    8.34
   3   5 -19  121.61   24.69
   3   5 -18   10.97    9.60
  -3   5  18    5.86    6.15
   3   5 -17   10.90    8.88
  -3   5  17    6.02    8.99
   3   5 -16  112.72   22.42
  -3   5  16   72.64   19.08
  -3   5  15   85.94   20.45
   3   5 -15   89.61   18.54
   3   5 -14   53.39   15.40
  -3   5  14   66.04   17.22
   3   5 -13   62.43   15.57
  -3   5  13   58.91   16.00
   3   5 -12    0.42    4.53
  -3   5  12   -4.27    8.29
   3   5 -11    5.19    6.69
  -3   5  11   -2.81    6.61
  -3   5  11   -0.55    2.31
   3   5 -10   -0.03    6.05
  -3   5  10   -2.37    6.99
  -3   5  10    3.69    3.07
  -3   5   9  145.23   20.84
  -3   5   9  178.34   18.55
   3   5  -9  151.88   23.00
   3   5  -8   49.03   13.43
  -3   5   8   60.28   13.35
  -3   5   8   44.27    9.14
  -3   5   7  562.12   37.65
  -3   5   7  609.40   37.07
   3   5  -7  531.47   41.53
  -3   5   7  645.19   40.43
  -3   5   6  363.62   28.80
   3   5  -6  368.03   35.09
  -3   5   6  379.05   30.24
  -3   5   6  373.83   29.41
   3   5  -5   20.49    8.46
  -3   5   5   17.37    6.22
  -3   5   5   29.01    8.29
  -3   5   5   31.39    9.73
  -3   5   4   36.92    8.53
   3   5  -4   36.15   11.70
  -3   5   4   60.20   10.82
  -3   5   4   45.83   12.50
  -3   5   3  292.86   21.27
   3   5  -3  280.46   30.77
  -3   5   3  283.39   28.11
  -3   5   3  243.88   19.90
   3   5  -2   -0.91    4.25
  -3   5   2    1.07    1.62
  -3   5   2    4.90    3.46
  -3   5   2   -4.15    5.21
  -3   5   1   33.22    5.59
   3   5  -1   39.92   12.10
  -3   5   1   31.53    5.86
  -3   5   1   30.97    9.29
  -3   5   0  136.27    9.48
  -3   5   0  103.14    9.05
  -3   5   0  162.18   22.93
   3   5   0  148.42   22.76
  -3   5  -1  397.87   36.04
   3   5   1  410.24   37.91
  -3   5  -2  151.67   22.74
   3   5   2  158.88   23.64
   3   5   3  155.39   23.86
  -3   5  -3  155.07   23.47
  -3   5  -4    1.77    5.69
   3   5   4    4.39    8.14
  -3   5  -5   14.33    9.36
   3   5   5   19.46   10.06
  -3   5  -6  149.00   24.22
   3   5   6  161.99   25.59
  -3   5  -7   21.52   10.08
   3   5   7    1.29    6.02
  -3   5  -8    3.85    7.78
   3   5   8    7.04    7.13
  -3   5  -9   17.44    8.85
   3   5   9   27.21   11.15
  -3   5 -10  161.65   26.97
   3   5  10  141.64   26.17
   3   5  11  241.28   33.41
  -3   5 -11  241.07   33.65
  -3   5 -12   78.59   19.68
   3   5  12   88.49   21.02
  -3   5 -13   -5.21    5.89
   3   5  13    4.71    7.67
   3   5  14    5.92    8.26
  -3   5 -14   14.96    9.75
   3   5  15   10.15    8.79
  -3   5 -15    4.41    9.57
   3   6 -18   24.25   11.06
   3   6 -17   32.06   12.61
  -3   6  17   32.74   12.50
   3   6 -16   18.99    8.83
  -3   6  16   25.68   10.36
   3   6 -15   23.58   10.50
  -3   6  15   39.36   15.45
   3   6 -14    9.99    9.29
  -3   6  14   -7.51    7.67
   3   6 -13    2.63    6.33
  -3   6  13    7.14    7.15
   3   6 -12  137.30   23.72
  -3   6  12  117.69   21.83
   3   6 -11   20.10    9.88
  -3   6  11   18.25    8.84
   3   6 -10  129.74   22.18
  -3   6  10  146.59   17.76
  -3   6  10  127.18   21.60
   3   6  -9   10.76    9.10
  -3   6   9    5.22    4.21
  -3   6   9   15.18    8.90
   3   6  -8   -7.59    6.97
  -3   6   8   -0.26    4.03
  -3   6   8    8.08    5.98
   3   6  -7    6.26    4.03
  -3   6   7    7.87    5.33
  -3   6   7   -1.62    4.42
   3   6  -6   -7.19    6.91
  -3   6   6    9.50    6.28
  -3   6   6  -15.42    7.12
   3   6  -5   10.51    8.54
  -3   6   5   21.97    8.57
  -3   6   5   -0.78    4.55
  -3   6   4    4.66    4.32
   3   6  -4    3.38    5.11
  -3   6   4    0.86    4.15
  -3   6   3   -0.60    4.22
   3   6  -3    8.44    6.83
  -3   6   3   -1.78    4.10
  -3   6   2  240.75   18.31
   3   6  -2  245.39   30.15
  -3   6   2  239.10   28.99
   3   6  -1   53.82   15.26
  -3   6   1   71.80    9.20
  -3   6   1   54.32   14.89
   3   6   0  236.42   30.76
  -3   6   0  312.45   34.22
   3   6   1  131.18   23.04
  -3   6  -1  114.51   21.38
   3   6   2   13.22    9.48
  -3   6  -2   19.62    9.73
   3   6   3  153.32   25.77
  -3   6  -3  138.32   23.83
   3   6   4  171.31   27.56
  -3   6  -4  175.39   26.95
   3   6   5   37.67   15.49
  -3   6  -5   20.67   10.23
  -3   6  -6  276.07   35.25
   3   6   6  274.77   34.91
   3   6   7    7.07    7.39
  -3   6  -7  -16.53    9.29
   3   6   8   71.73   18.80
  -3   6  -8   41.90   14.28
   3   6   9    3.47    6.25
  -3   6  -9   10.99    8.05
   3   6  10   31.74   15.14
  -3   6 -10   24.90   11.77
   3   6  11   42.24   16.43
  -3   6 -11   49.11   17.50
   3   6  12   19.79   14.24
  -3   6 -12   26.35   12.85
  -3   7  15  -18.67   11.32
   3   7 -14   64.66   17.05
  -3   7  14   64.50   18.08
   3   7 -13   72.68   18.42
  -3   7  13   70.62   18.52
   3   7 -12    7.98    5.75
  -3   7  12    0.65    4.84
   3   7 -11   17.91    8.27
  -3   7  11   30.10   12.25
   3   7 -10   -0.56    4.20
  -3   7  10    7.21    6.52
  -3   7   9   29.56   10.67
   3   7  -9   29.38   11.95
  -3   7   8  137.14   21.19
  -3   7   8  174.98   23.18
   3   7  -8  156.18   25.58
  -3   7   7   17.53    7.81
   3   7  -7   33.15   12.58
  -3   7   7   12.52    6.17
  -3   7   6    9.42    7.16
   3   7  -6   -2.57    4.86
   3   7  -5  110.60   21.37
  -3   7   5   86.40   17.76
   3   7  -4   17.20   10.95
  -3   7   4   31.82   11.39
   3   7  -3    4.49    6.68
  -3   7   3    7.69    6.33
   3   7  -2    0.08    6.70
  -3   7   2   -4.83    5.65
   3   7  -1   25.79   10.59
  -3   7   1   29.75   12.81
   3   7   0  149.74   25.47
  -3   7   0  155.43   25.78
   3   7   1    3.62    6.71
  -3   7  -1   -4.09    8.80
   3   7   2  100.41   22.07
  -3   7  -2   93.61   21.02
   3   7   3   19.44    9.42
  -3   7  -3   26.19   11.77
   3   7   4   44.23   15.46
  -3   7  -4   35.87   13.73
   3   7   5   17.93   10.63
  -3   7  -5   37.11   13.32
   3   7   6    8.04    7.75
  -3   7  -6   -7.34    7.27
   3   7   7   10.74    7.89
  -3   7  -7    6.91    8.04
   3   7   8    9.06    9.24
  -3   7  -8    5.29    7.28
   3   8 -10    5.96    7.38
   3   8  -9   39.65   15.17
   3   8  -8   22.16   10.68
   3   8  -7   -1.73    8.29
   3   8  -6    4.66    7.16
  -3   8   6    6.01    5.28
   3   8  -5   43.66   15.10
  -3   8   5   33.89    9.89
   3   8  -4   42.60   15.90
  -3   8   4    6.55    6.37
   3   8  -3   61.53   17.06
  -3   8   3   90.00   19.85
   3   8  -2    2.84    6.35
  -3   8   2    8.24    6.01
   3   8  -1   68.12   18.81
  -3   8   1   71.15   17.84
   3   8   0  151.25   26.32
  -3   8   0  139.81   25.62
   3   8   1   26.89   11.69
  -3   8  -1   39.79   12.60
   3   8   2  167.42   30.48
  -3   8  -2  139.73   26.88
  -4   0  21  -12.63   10.29
  -4   0  20  112.36   24.61
  -4   0  19    2.50    6.26
   4   0 -18  229.02   33.17
  -4   0  18  177.80   30.06
   4   0 -17   -6.03    7.84
   4   0 -16   64.25   17.68
   4   0 -15  -17.54    9.41
   4   0 -14    9.12    6.46
  -4   0  14    8.40    4.43
   4   0 -13    0.97    6.41
  -4   0  13    7.49    3.97
  -4   0  12  165.86   16.47
   4   0 -12  140.43   22.79
   4   0 -11   -6.06    8.73
  -4   0  11   -1.58    3.29
   4   0 -10  995.60   56.50
   4   0  -9   -0.78    5.75
   4   0  -8   12.86    7.31
   4   0  -7   -1.20    6.37
  -4   0   6   32.66    9.93
   4   0  -6   20.36    7.52
   4   0  -5   -1.28    5.48
  -4   0   5    4.80    4.67
  -4   0   4  267.47   25.45
   4   0  -4  364.13   30.47
  -4   0   3    1.50    4.92
   4   0  -3   -6.78    7.24
   4   0  -2  800.07   43.35
  -4   0   2  864.59   41.42
  -4   0   1    0.39    4.80
   4   0  -1   -4.01    5.78
   4   0   0 1544.91   59.81
  -4   0   0 1615.45   55.31
  -4   0  -1   -2.21    2.88
   4   0   1   -1.90    4.86
  -4   0  -2  162.16   17.22
   4   0   2  153.03   18.80
  -4   0  -3    0.25    3.94
   4   0   3   -3.63    4.94
  -4   0  -4   34.31    8.70
   4   0   4   29.36   10.09
   4   0   5    4.29    6.21
  -4   0  -5   -0.37    2.94
  -4   0  -6  122.41   15.75
   4   0   6  111.13   15.46
   4   0   7    4.70    4.90
  -4   0  -7    6.82    4.59
   4   0   8   70.05   12.65
  -4   0  -8   69.46   12.57
   4   0   9   -1.20    4.96
  -4   0  -9   -6.34    4.92
  -4   0 -10 1520.75   60.94
   4   0  10 1451.45   59.11
  -4   0 -11   10.40    9.90
   4   0  11    2.20    4.28
  -4   0 -11   -6.46    4.55
  -4   0 -12  115.30   22.83
   4   0  12  121.84   18.55
  -4   0 -13   -0.33    7.81
   4   0  13    8.21    5.94
  -4   0 -14   29.60   13.38
   4   0  14   27.77    9.30
  -4   0 -15    9.60    7.75
   4   0  15    0.48    3.61
   4   0  16  238.43   28.01
  -4   0 -16  318.55   39.04
  -4   0 -17   -4.38    7.60
  -4   0 -18   -6.71    7.78
  -4   0 -19   -0.25    4.45
  -4   0 -20   65.08   19.20
  -4   1  20   -5.00    8.36
   4   1 -19   42.56   15.97
  -4   1  19   21.59   12.02
   4   1 -18  213.72   32.01
  -4   1  18  223.81   33.78
  -4   1  17   63.69   18.67
   4   1 -17   51.88   16.67
   4   1 -16   -5.57    9.24
  -4   1  16    2.77    7.86
   4  -1 -15   10.38    7.53
  -4   1  15   -0.36    6.90
   4   1 -15    6.54    7.62
  -4   1  14   40.80    6.72
   4   1 -14   21.10   10.43
   4  -1 -14   15.62    7.60
  -4  -1  14   38.20    8.78
   4   1 -13  137.54   23.59
  -4   1  13  117.24   11.71
  -4  -1  13  149.64   17.22
   4  -1 -13  128.08   22.99
   4  -1 -12  964.81   59.07
  -4  -1  12  957.67   43.72
   4   1 -12  961.32   58.84
   4  -1 -11  219.96   27.64
  -4  -1  11  221.00   21.31
   4   1 -11  215.99   27.40
   4   1 -10   20.05    8.22
   4  -1 -10   28.92   11.26
  -4  -1  10   25.65    7.31
  -4  -1   9  186.84   19.91
   4   1  -9  138.24   21.22
   4  -1  -9  165.42   22.63
   4   1  -8  389.04   34.75
   4  -1  -8  403.72   33.85
   4   1  -7   12.50    5.85
  -4   1   7   28.06    8.64
   4  -1  -7   32.36    9.66
   4   1  -6  563.28   40.55
   4  -1  -6  543.21   37.36
  -4   1   5  169.46   20.15
   4   1  -5  224.67   25.34
  -4  -1   5  269.94   26.02
   4  -1  -5  247.60   24.64
  -4   1   4   -1.81    3.41
   4  -1  -4    2.55    4.94
  -4  -1   4   11.70    6.32
   4   1  -4    4.55    5.44
  -4   1   3   87.35   13.91
   4  -1  -3   74.20   13.63
  -4  -1   3   72.35   12.81
   4   1  -3   70.40   13.63
   4  -1  -2   84.42   13.96
  -4  -1   2   76.06   13.24
   4   1  -2   91.37   15.92
  -4   1   2  100.65   13.13
   4   1  -1  555.85   38.07
   4  -1  -1  542.88   33.72
  -4   1   1  607.77   31.64
  -4  -1   0  417.34   30.77
   4   1   0  517.94   37.01
  -4   1   0  519.07   28.84
   4  -1   0  540.76   32.92
  -4  -1  -1  231.31   22.61
   4   1   1  268.86   26.91
  -4   1  -1  275.33   20.79
   4  -1   1  278.83   23.75
  -4  -1  -2  153.05   18.69
  -4   1  -2  226.76   18.20
   4   1   2  222.13   24.82
   4  -1   2  213.16   20.64
  -4   1  -3  190.07   16.92
   4   1   3  207.41   23.59
   4  -1   3  216.90   20.81
  -4   1  -4   37.86    7.62
  -4  -1  -4   21.25    7.50
   4  -1   4   27.74    8.18
   4   1   4   35.26    9.66
  -4  -1  -5   84.70   14.44
  -4   1  -5  119.08   20.23
  -4   1  -5  137.81   14.39
   4  -1   5  148.37   17.80
   4   1   5  128.43   17.41
  -4   1  -6  913.34   37.34
   4  -1   6  829.69   41.90
   4   1   6  876.61   46.39
  -4   1  -6  809.58   53.65
   4  -1   7   28.59    8.89
  -4   1  -7   25.78   11.23
   4   1   7   31.16    9.06
  -4   1  -7   34.69    7.66
  -4  -1  -7   28.61    8.59
   4   1   8  371.17   31.24
  -4   1  -8  308.37   34.57
   4  -1   8  357.02   24.27
  -4   1  -9    2.02    7.63
   4   1   9   -3.39    5.87
   4  -1   9    5.70    4.26
  -4   1  -9   13.51    5.72
  -4   1 -10   34.75   12.92
   4   1  10   46.36   11.97
   4  -1  10   28.04    7.27
  -4   1 -10   47.36    9.36
  -4   1 -11    8.40    8.65
   4   1  11    4.09    7.11
   4  -1  11   -2.44    3.37
  -4   1 -12   40.49   12.15
   4   1  12   57.96   14.60
   4  -1  12   31.02    8.10
  -4   1 -13  154.21   26.40
   4   1  13  165.20   23.81
   4  -1  13  169.92   19.45
  -4   1 -14   38.70   14.24
  -4  -1 -14   23.85   11.58
   4   1  14   22.03    9.52
   4  -1  14   27.64    9.06
  -4   1 -15  150.44   27.46
  -4  -1 -15  109.04   22.19
   4   1  15   97.43   19.15
  -4   1 -16   73.54   18.43
  -4  -1 -16   67.76   18.75
   4   1  16   55.18   15.49
  -4   1 -17   -3.71    6.65
  -4  -1 -17    1.03    7.06
   4   1  17    5.95    5.85
  -4   1 -18   50.89   16.81
  -4  -1 -18   40.08   15.48
   4   1  18   73.09   17.55
  -4   1 -19   11.57    6.86
  -4  -1 -19  -11.43    9.33
   4   2 -21   29.26   13.30
  -4   2  20   23.88   12.99
   4   2 -20   13.25    9.60
   4   2 -19  491.76   50.26
  -4   2  19  295.57   40.42
   4   2 -18   -1.54    8.57
  -4   2  18    5.86    7.56
  -4   2  17   66.66   18.84
   4   2 -17   69.43   18.55
  -4   2  16   36.37   15.57
   4   2 -16    8.97    7.91
  -4   2  15  221.59   31.34
   4   2 -15  244.28   33.05
   4   2 -14   80.42   19.00
  -4   2  14   50.16   15.59
  -4  -2  14   52.46   11.83
  -4   2  13   21.07    4.58
  -4   2  13   33.58   13.44
   4   2 -13   18.82    9.86
  -4  -2  13   25.48    8.95
  -4   2  12   38.77   12.88
   4  -2 -12   35.87   12.23
   4   2 -12   43.39   13.67
  -4   2  12   70.71    9.41
  -4  -2  12   54.50   12.05
  -4   2  11   15.93    4.75
  -4   2  11   10.47    7.88
   4   2 -11    5.26    7.30
  -4  -2  11    9.71    5.79
   4  -2 -10   74.83   16.10
   4   2 -10   78.00   16.98
  -4   2  10   85.96   11.91
  -4  -2  10   56.98   11.29
   4  -2  -9  515.96   39.66
  -4  -2   9  552.14   36.97
  -4   2   9  534.36   31.36
   4   2  -9  506.83   41.60
   4   2  -8   -1.95    6.51
   4  -2  -8    7.91    5.61
  -4  -2   8   15.11    7.65
   4  -2  -7  342.22   30.83
  -4  -2   7  349.16   29.37
  -4   2   7  375.70   30.84
   4   2  -7  332.79   32.72
  -4   2   7  346.60   27.34
  -4   2   6   70.95   13.33
  -4   2   6   37.95    9.89
   4  -2  -6   72.72   14.45
   4   2  -6   55.79   13.26
  -4   2   5   25.77    7.57
   4  -2  -5   32.38    9.70
  -4   2   5   22.48    7.38
   4   2  -5   30.69    9.97
  -4   2   4  177.27   19.59
   4   2  -4  195.10   24.42
  -4   2   4  169.99   20.93
   4  -2  -4  177.42   20.27
  -4   2   3  271.31   23.77
   4   2  -3  293.65   29.79
  -4   2   3  278.34   27.12
   4  -2  -3  286.28   24.81
  -4   2   2  110.62   17.33
   4   2  -2  108.44   18.46
  -4   2   2  117.18   15.01
   4  -2  -2   88.98   13.59
   4   2  -1  190.36   23.65
  -4   2   1  211.32   24.93
  -4   2   1  205.25   17.01
   4  -2  -1  210.62   19.94
   4   2   0  179.04   23.06
  -4   2   0  203.24   16.31
  -4   2   0  183.95   24.03
   4  -2   0  194.46   18.90
   4   2   1  500.53   38.58
  -4   2  -1  530.93   25.12
  -4   2  -1  487.51   38.91
   4  -2   1  518.10   30.12
   4  -2   2    9.19    4.69
  -4   2  -2   11.22    4.46
  -4   2  -2    7.25    4.93
   4   2   2   13.51    7.75
  -4   2  -3  184.38   13.70
   4  -2   3  177.23   17.07
  -4   2  -3  186.61   24.79
   4   2   3  178.22   22.33
   4  -2   4    3.08    2.82
  -4   2  -4    6.44    6.79
   4   2   4    3.92    5.42
  -4   2  -4    5.24    2.76
  -4   2  -5  210.04   14.07
   4  -2   5  195.97   17.35
   4   2   5  186.96   23.70
  -4   2  -5  204.27   27.26
  -4   2  -6  108.87   20.01
  -4   2  -6   76.73    8.68
   4   2   6  117.60   19.02
   4  -2   6  115.71   14.07
  -4   2  -7   39.04   12.74
   4   2   7   45.71   12.06
   4  -2   7   43.03    8.67
  -4   2  -7   30.53    5.60
  -4   2  -8   21.80   12.08
   4   2   8   22.48    9.34
   4  -2   8   13.09    4.71
  -4   2  -8   19.40    4.58
  -4   2  -9 1382.17   38.81
   4  -2   9 1183.56   45.30
   4   2   9 1263.74   64.27
  -4   2  -9 1258.00   72.21
   4  -2  10  239.13   20.71
   4   2  10  191.87   25.47
  -4   2 -10  188.23   28.36
  -4   2 -11   23.66   11.24
   4   2  11   17.18    8.26
  -4   2 -12    2.46    8.59
   4   2  12   -4.08    7.11
  -4   2 -13   18.81   11.24
   4   2  13    7.58    7.74
  -4   2 -14   15.20   10.70
   4   2  14   -2.47    5.82
  -4   2 -15   -5.04    6.62
   4   2  15    2.46    4.78
  -4   2 -16  -12.82   10.09
   4   2  16   -6.93    7.15
  -4   2 -17   44.05   15.65
  -4  -2 -17   22.81   12.62
   4   2  17   24.12   10.94
  -4   2 -18    2.27    6.78
  -4  -2 -18    9.97    8.90
   4   2  18    6.43    6.84
  -4  -2 -19  102.59   22.76
   4   2  19  142.53   26.57
   4   3 -20   25.13   12.27
   4   3 -19    8.10    7.58
  -4   3  19  -16.13   11.18
  -4   3  18    2.31    8.82
   4   3 -18   -0.38    5.10
   4   3 -17    3.85    6.97
  -4   3  17   19.90   12.73
   4   3 -16   14.95    9.20
  -4   3  16   -4.17    6.35
  -4   3  15   57.64   16.86
   4   3 -15   21.48   10.40
  -4   3  14  169.41   27.12
   4   3 -14  168.01   26.75
  -4   3  13  124.44   22.63
   4   3 -13  118.00   22.43
   4   3 -12   44.74   13.93
  -4   3  12   24.13    8.59
  -4   3  12   26.16    5.76
  -4   3  11  194.48   26.21
  -4   3  11  194.12   16.73
   4   3 -11  218.08   28.79
  -4   3  10    4.85    3.45
   4   3 -10    9.09    7.87
  -4   3  10    5.69    6.94
  -4   3   9  241.64   27.38
  -4   3   9  246.15   21.49
   4   3  -9  219.24   28.44
  -4   3   8  235.58   25.81
   4   3  -8  233.90   28.80
  -4   3   8  228.97   21.58
  -4   3   7   55.84   11.93
  -4   3   7   59.10   13.49
  -4   3   7   64.50   12.95
   4   3  -7   35.14   11.25
  -4   3   6   40.17   10.39
  -4   3   6   36.79    9.72
  -4   3   6   22.30    7.11
   4   3  -6   25.16    9.70
   4  -3  -6   29.56    9.13
   4  -3  -5  243.01   24.15
  -4   3   5  216.71   21.81
  -4   3   5  163.00   19.11
   4   3  -5  229.22   27.64
  -4   3   5  230.11   23.69
   4  -3  -4  187.44   20.48
  -4   3   4  176.84   18.87
  -4   3   4  189.72   19.87
   4   3  -4  183.51   25.03
  -4   3   4  185.00   22.16
  -4   3   3   68.20   13.93
  -4   3   3   77.49   12.54
   4   3  -3   54.88   13.07
  -4   3   3   52.73   10.01
   4  -3  -3   50.29   10.05
  -4   3   2    1.47    5.36
  -4   3   2    2.33    3.43
   4  -3  -2   -0.96    3.87
   4   3  -2   -2.68    8.02
  -4   3   2    5.98    4.76
   4  -3  -1 1004.67   41.64
  -4   3   1  896.51   34.69
   4   3  -1  966.10   56.65
  -4   3   1  966.50   54.01
   4  -3   0  214.27   18.41
  -4   3   0  188.40   14.40
   4   3   0  189.61   25.42
  -4   3   0  215.86   14.64
  -4   3   0  215.91   26.70
  -4   3  -1  884.15   27.92
   4   3   1  775.52   50.86
  -4   3  -1  851.07   25.79
  -4   3  -1  800.38   51.36
   4  -3   1  794.32   33.77
  -4   3  -2  373.12   15.17
  -4   3  -2  361.59   14.31
   4   3   2  340.16   33.04
  -4   3  -2  394.36   36.71
   4  -3   2  377.53   21.89
  -4   3  -3  173.17   25.32
   4   3   3  202.48   25.73
   4  -3   3  160.14   13.67
  -4   3  -4  197.33   26.75
   4   3   4  204.49   25.81
   4  -3   4  174.36   13.44
   4   3   5  203.22   26.33
  -4   3  -5  235.55   29.95
   4  -3   5  211.97   13.98
  -4   3  -6   79.54   17.96
   4   3   6   69.08   16.29
   4  -3   6   76.31    8.15
  -4   3  -7   23.00    8.27
   4  -3   7   33.99    5.28
   4   3   7   40.81   12.74
  -4   3  -8   90.44   20.33
   4   3   8   61.83   16.15
   4  -3   8   71.56    7.54
  -4   3  -9   24.38   11.74
   4   3   9   38.78   12.40
  -4   3 -10   12.04    9.52
   4   3  10    6.16    5.77
  -4   3 -11    6.51    7.87
   4   3  11   10.18    9.63
  -4   3 -12   87.32   20.56
   4   3  12   84.56   19.22
   4   3  13  265.77   33.99
  -4   3 -13  322.39   40.76
  -4   3 -14  124.79   26.05
   4   3  14  126.53   24.36
  -4   3 -15   41.61   15.69
   4   3  15   31.81   13.35
  -4   3 -16   57.83   18.87
   4   3  16   64.33   18.29
   4   3  17   40.00   15.20
   4   4 -19    5.66    5.81
   4   4 -18   69.65   19.16
  -4   4  18  103.22   25.38
   4   4 -17   32.34   13.25
  -4   4  17   25.53   12.54
   4   4 -16   68.46   17.90
  -4   4  16   62.76   17.98
  -4   4  15    9.25    7.97
   4   4 -15    3.38    5.21
  -4   4  14    8.80    8.62
   4   4 -14    2.10    4.75
   4   4 -13   10.66    7.46
  -4   4  13   -3.86    9.03
   4   4 -12   -7.25    6.65
  -4   4  12  -15.13    8.69
  -4   4  11  196.05   26.75
  -4   4  11  276.61   20.86
   4   4 -11  252.16   32.54
   4   4 -10  101.01   19.84
  -4   4  10  101.89   18.74
  -4   4  10  153.64   16.85
  -4   4   9  463.67   38.03
  -4   4   9  498.18   31.85
   4   4  -9  498.77   44.02
  -4   4   8  169.60   22.18
   4   4  -8  195.19   27.48
  -4   4   8  243.98   23.46
  -4   4   7   46.72   10.90
  -4   4   7   31.52   10.51
   4   4  -7   30.92   11.21
  -4   4   7   38.60   10.27
  -4   4   6   66.09   13.73
   4   4  -6   45.37   14.05
  -4   4   6   55.23   11.79
  -4   4   6   59.05   11.82
  -4   4   5    5.43    4.54
   4   4  -5    7.86    7.32
  -4   4   5   10.73    6.59
  -4   4   5    9.04    4.85
  -4   4   4   -0.82    5.44
   4   4  -4    4.20    6.08
  -4   4   4    8.74    4.63
  -4   4   4   -1.25    4.64
  -4   4   3    7.52    4.60
   4   4  -3    0.79    6.03
  -4   4   3    2.18    3.18
  -4   4   3    7.01    4.87
  -4   4   2  100.83   17.27
  -4   4   2   94.55   11.74
  -4   4   2   71.61   11.13
   4   4  -2   95.02   19.04
  -4   4   1  190.96   14.01
  -4   4   1  141.51   14.05
   4   4  -1  198.81   26.77
  -4   4   1  193.52   25.17
  -4   4   0  113.03   20.18
   4   4   0  116.24   20.92
  -4   4   0  103.77    8.55
  -4   4   0   70.28    6.64
  -4   4  -1  127.61   21.39
   4   4   1  133.37   22.30
  -4   4  -2   88.84   18.35
   4   4   2  110.39   20.95
  -4   4  -3   57.40   14.59
   4   4   3   50.28   13.77
  -4   4  -4    9.63    6.69
   4   4   4   23.38   10.03
  -4   4  -5   78.06   18.00
   4   4   5   71.53   16.91
  -4   4  -6  178.23   27.78
   4   4   6  195.01   27.71
  -4   4  -7   -3.20    4.74
   4   4   7   -2.64    6.28
  -4   4  -8   64.82   17.57
   4   4   8   55.24   15.69
  -4   4  -9   21.91    8.73
   4   4   9   12.46    8.79
   4   4  10  257.18   34.34
  -4   4 -10  215.66   32.67
  -4   4 -11   19.52    7.58
   4   4  11   -0.57    6.33
  -4   4 -12   66.14   19.37
   4   4  12   81.43   20.33
  -4   4 -13    3.82    6.99
   4   4  13    0.94    7.09
  -4   4 -14   25.34   13.23
   4   4  14   -1.27    6.03
   4   4  15   31.20   13.63
   4   5 -18   25.59   12.22
   4   5 -17   32.67   14.20
  -4   5  17   17.20   10.70
  -4   5  16   -0.44    8.84
   4   5 -16   10.67    8.22
  -4   5  15  -33.01   13.54
   4   5 -15   15.79    9.80
   4   5 -14   75.96   19.19
  -4   5  14   58.44   16.27
   4   5 -13   30.41   12.30
  -4   5  13  -17.48    9.56
   4   5 -12   86.60   19.99
  -4   5  12   83.54   18.25
   4   5 -11   85.96   20.17
  -4   5  11   80.07   16.62
   4   5 -10   19.89   10.00
  -4   5  10   20.48    8.91
  -4   5  10   20.23    6.75
  -4   5   9   -1.51    4.41
  -4   5   9    0.23    2.55
  -4   5   8   77.40   15.88
   4   5  -8   61.86   16.54
  -4   5   8   85.94   14.91
  -4   5   7  142.04   19.36
   4   5  -7  141.19   24.05
  -4   5   7  132.32   19.01
   4   5  -6   47.13   14.44
  -4   5   6   58.37   12.95
  -4   5   6   52.67   12.31
  -4   5   5  -15.74    7.54
   4   5  -5   -1.53    6.64
  -4   5   5    0.58    3.22
  -4   5   4    8.03    5.54
  -4   5   4   -2.19    3.04
  -4   5   3   74.88   15.97
   4   5  -3   53.16   15.34
  -4   5   3   72.11   10.55
  -4   5   2   34.88   12.59
   4   5  -2   53.57   15.16
  -4   5   2   37.99    6.90
  -4   5   1   37.93   12.12
   4   5  -1   37.31   12.78
  -4   5   0   16.67    8.22
   4   5   0   17.12    7.56
  -4   5  -1  152.92   24.65
   4   5   1  114.09   22.52
  -4   5  -2  100.11   21.09
   4   5   2   74.65   19.40
  -4   5  -3    5.61    8.08
   4   5   3   -1.43    4.69
  -4   5  -4  196.49   29.43
   4   5   4  181.80   27.96
  -4   5  -5   95.45   21.05
   4   5   5   59.61   16.04
  -4   5  -6   34.86   12.60
   4   5   6   38.65   13.19
  -4   5  -7  122.84   23.83
   4   5   7  208.25   31.54
  -4   5  -8   39.40   14.31
   4   5   8   14.04    8.05
  -4   5  -9   11.29    8.78
   4   5   9  -12.24    8.92
  -4   5 -10   16.15    9.96
   4   5  10   17.69   10.57
  -4   5 -11    8.90   10.09
   4   5  11   16.42   11.22
   4   5  12  155.21   29.49
  -4   6  16   84.86   22.08
   4   6 -16   97.33   22.47
   4   6 -15   45.59   15.33
  -4   6  15    6.68    8.02
   4   6 -14   44.27   15.38
  -4   6  14   35.10   13.45
   4   6 -13   32.28   13.22
  -4   6  13   29.57   12.78
   4   6 -12    5.98    7.30
  -4   6  12  -16.26    8.73
   4   6 -11   76.40   19.56
  -4   6  11   91.51   18.62
  -4   6  10    5.79    5.52
   4   6 -10    8.69    7.72
  -4   6   9   29.09   10.40
   4   6  -9   29.21   10.99
   4   6  -8    0.59    4.55
  -4   6   8    0.42    3.49
  -4   6   8   11.48    6.90
   4   6  -7   32.46   12.78
  -4   6   7   28.87   10.31
  -4   6   7   13.30    6.81
   4   6  -6    6.39    5.48
  -4   6   6    3.14    4.70
   4   6  -5    0.89    4.12
  -4   6   5    1.91    3.99
   4   6  -4    7.90    7.56
  -4   6   4   10.27    6.68
   4   6  -3   10.12    9.99
  -4   6   3  -30.78   11.04
   4   6  -2   15.70    8.52
  -4   6   2    3.68    5.24
   4   6  -1  149.72   26.11
  -4   6   1  169.20   26.01
   4   6   0  -23.55   11.51
  -4   6   0    7.90    6.47
   4   6   1  154.65   26.60
  -4   6  -1  146.77   25.30
   4   6   2   -4.64    8.92
  -4   6  -2   -0.17    3.82
   4   6   3    7.62    9.94
  -4   6  -3   11.21    8.56
   4   6   4    9.87   10.79
  -4   6  -4   20.82    8.67
  -4   6  -5   -9.31    7.60
   4   6   5   10.04    9.36
  -4   6  -6   25.65   11.64
   4   6   6   21.56   11.29
  -4   6  -7  -22.30   11.65
   4   6   7   -2.90    6.28
   4   6   8   27.25   13.66
  -4   6  -8   25.35   12.66
   4   7 -12   -7.44    8.28
   4   7 -11   71.80   19.40
   4   7 -10    0.43    8.55
   4   7  -9   34.03   13.65
   4   7  -8   25.88   12.13
   4   7  -7   86.58   20.74
   4   7  -6  -19.59   10.91
  -4   7   6  -12.92    7.50
   4   7  -5   27.73   11.98
  -4   7   5   42.89   12.76
   4   7  -4  132.41   25.82
  -4   7   4   91.39   19.33
   4   7  -3  -22.06   11.62
  -4   7   3    3.48    4.66
   4   7  -2   89.15   20.93
  -4   7   2  114.51   22.99
   4   7  -1   68.43   18.91
  -4   7   1   82.78   20.96
   4   7   0    4.15    6.07
  -4   7   0  -14.64    8.68
   4   7   1   16.77   11.29
  -4   7  -1   36.81   13.44
   4   7   2   26.16   13.60
  -4   7  -2   31.57   12.48
  -4   7  -3    9.96    7.37
  -4   7  -4  -14.90    9.81
  -4   8   4    0.93    3.12
  -4   8   3   10.05    7.03
  -4   8   2   21.88   10.60
   5   0 -18  -15.68   10.69
   5   0 -17  174.25   30.55
   5   0 -16    1.31    7.11
   5   0 -15   17.03    8.90
   5   0 -14    2.47    5.34
   5   0 -13  272.59   35.33
   5   0 -12    5.37    6.51
   5   0 -11    9.58    6.58
   5   0 -10    0.81    4.38
   5   0  -9   11.65    8.27
   5   0  -8   -6.08    5.57
   5   0  -7 1231.78   66.19
   5   0  -6    0.81    3.97
   5   0  -5  331.86   33.52
   5   0  -4   -1.53    5.83
   5   0  -3    8.03    6.78
   5   0  -2   10.55    7.33
  -5   0   1   12.38    7.21
   5   0  -1   16.45    9.32
  -5   0   0   -9.38    5.79
   5   0   0   -6.16    6.54
  -5   0  -1  454.74   32.75
   5   0   1  404.12   34.71
  -5   0  -2    0.83    3.09
   5   0   2    5.33    6.96
  -5   0  -3   10.45    5.86
   5   0   3    8.07    7.48
  -5   0  -4   -6.97    4.61
   5   0   4  -15.39    7.86
   5   0   5    0.68    5.24
  -5   0  -5    0.59    3.16
   5   0   6    5.84    5.49
  -5   0  -6   -6.86    4.91
   5   0   7  196.90   25.17
   5   0   8   -0.31    4.35
   5   0   9   -1.13    3.47
  -5   0 -10    3.03    8.42
   5   0  10    5.93    4.77
  -5   0 -11  323.63   41.17
   5   0  11  238.82   26.27
  -5   0 -12   -0.20    6.78
   5   0  12    4.29    4.50
  -5   0 -13   85.84   21.20
  -5   0 -14    4.36    6.12
  -5   0 -15   22.41   14.55
  -5   1  18   23.04   12.55
   5   1 -18   -1.33    6.29
   5   1 -17  121.59   25.96
  -5   1  17   71.23   19.21
   5  -1 -17  105.98   23.93
   5  -1 -16   16.59    8.72
   5   1 -16   35.20   14.10
   5  -1 -15  -14.96    9.54
   5   1 -15   14.40    9.73
   5   1 -14   13.50    6.72
   5  -1 -14    2.50    6.47
   5   1 -13   16.13    9.45
   5  -1 -13    3.75    5.91
   5  -1 -12  130.20   23.95
   5   1 -12  129.84   23.44
   5  -1 -11  573.27   48.22
   5   1 -11  514.65   46.33
   5  -1 -10   27.91   11.04
   5   1 -10   12.54    7.10
   5   1  -9  209.25   28.97
   5  -1  -9  203.17   27.28
   5   1  -8   -1.84    9.19
   5  -1  -8    2.33    4.98
   5   1  -7  110.27   20.67
   5  -1  -7  112.17   19.93
   5   1  -6    7.76    6.65
   5  -1  -6    7.29    6.11
   5  -1  -5    2.31    5.67
   5   1  -5   -4.26    5.77
   5  -1  -4   46.41   12.34
  -5   1   4   34.32    9.86
   5   1  -4   26.64   10.19
   5  -1  -3   -3.67    6.93
  -5   1   3  -10.99    5.81
   5   1  -3    1.77    5.37
   5  -1  -2  104.81   17.56
   5   1  -2  107.19   18.65
  -5   1   2  125.87   16.97
   5   1  -1  536.89   42.53
  -5   1   1  612.20   36.43
   5  -1  -1  607.98   41.21
   5   1   0  115.30   20.39
  -5   1   0  147.64   17.62
   5  -1   0  135.09   19.94
  -5   1  -1  286.49   23.96
   5   1   1  266.74   29.82
   5  -1   1  277.51   27.58
  -5   1  -2   50.30   10.22
   5   1   2   54.91   14.27
   5  -1   2   48.38   11.35
  -5   1  -3  338.00   25.86
   5   1   3  337.73   34.40
   5  -1   3  338.50   30.04
   5   1   4  135.88   22.28
  -5   1  -4  155.80   17.20
   5  -1   4  134.39   19.13
  -5   1  -5   19.82    9.63
   5   1   5   21.86   10.18
   5  -1   5   36.04   11.02
  -5   1  -5   25.21    7.21
   5   1   6  -12.00    7.49
  -5   1  -6   -0.73    9.51
   5  -1   6    1.60    4.29
  -5   1  -7    9.94    6.84
   5  -1   7    6.98    5.20
   5   1   7   17.81    9.09
  -5   1  -8  272.58   36.25
   5   1   8  296.13   30.71
  -5   1  -9   14.49    6.99
   5  -1   9   22.96    8.52
   5   1   9   13.26    6.85
  -5   1 -10   28.35   12.98
   5  -1  10   21.35    8.85
   5   1  10   22.97    8.99
  -5   1 -11   16.56   10.45
   5  -1  11   11.15    6.21
   5   1  11   14.25    7.64
  -5   1 -12   -7.06    8.68
   5   1  12    1.76    4.38
  -5   1 -13   10.20   11.79
   5   1  13   13.31    7.94
  -5   1 -14  108.27   25.39
  -5  -1 -14  119.27   26.52
   5   1  14   75.66   17.00
  -5  -1 -15  116.05   25.60
  -5   2  18   23.19   12.24
   5   2 -18   30.92   13.06
  -5   2  17   84.73   21.87
   5   2 -17   81.73   21.26
   5   2 -16  120.93   25.40
  -5   2  16  102.32   24.04
   5   2 -15   57.08   17.37
  -5   2  15   42.75   14.97
  -5   2  14   52.16   16.66
   5   2 -14   43.43   14.83
  -5   2  13    0.94    5.47
   5  -2 -13   -3.51    7.61
   5   2 -13   11.12    7.91
  -5   2  12   27.54    7.82
  -5   2  12   38.20   13.02
   5  -2 -12   40.07   13.16
   5   2 -12   16.68    9.81
  -5   2  11   94.45   14.94
   5   2 -11  103.98   21.51
   5  -2 -11   84.23   18.63
   5  -2 -10  167.05   25.24
   5   2 -10  146.05   25.09
  -5   2  10  128.45   17.98
   5  -2  -9   -6.22    9.19
  -5   2   9   -7.20    5.09
   5   2  -9    7.48    6.64
   5   2  -8   97.51   19.51
  -5   2   8   97.32   16.83
   5  -2  -8   91.79   18.03
   5  -2  -7  152.59   22.75
  -5   2   7  165.62   22.14
   5   2  -7  147.94   24.11
   5   2  -6  263.46   31.92
  -5   2   6  242.72   27.50
   5  -2  -6  266.34   29.17
   5  -2  -5    1.17    5.01
  -5   2   5   -3.42    6.21
   5   2  -5    7.46    5.30
  -5   2   4   72.81   14.35
   5   2  -4   60.42   15.16
   5  -2  -4   67.20   14.30
  -5   2   3    9.13    8.51
  -5   2   3    4.96    3.96
   5   2  -3    3.78    7.71
   5  -2  -3   16.43    8.40
   5   2  -2  527.84   44.39
  -5   2   2  609.82   34.46
  -5   2   2  525.84   43.63
   5  -2  -2  583.59   38.97
  -5   2   1   36.87   12.57
  -5   2   1   21.59    6.75
   5   2  -1   18.50   10.09
   5  -2  -1   24.03    8.77
  -5   2   0  442.94   27.92
   5   2   0  406.19   38.85
  -5   2   0  395.45   39.18
   5  -2   0  401.98   31.20
  -5   2  -1   -2.29    6.41
  -5   2  -1    6.46    2.70
   5  -2   1    2.53    3.19
   5   2   1   10.14    6.59
  -5   2  -2  204.49   17.78
   5   2   2  244.11   30.60
   5  -2   2  229.11   23.09
  -5   2  -2  221.40   30.95
   5  -2   3   45.68   10.02
  -5   2  -3   71.44   17.92
   5   2   3   69.80   17.10
  -5   2  -4  175.38   27.79
   5   2   4  189.96   27.13
   5  -2   4  138.37   17.44
   5   2   5   47.33   14.56
  -5   2  -5   32.70   12.36
   5  -2   5   12.02    5.89
  -5   2  -6  164.00   27.76
   5   2   6  173.12   24.55
   5  -2   6  141.53   17.45
  -5   2  -7   49.31   16.23
   5   2   7   32.30   10.76
   5  -2   7   34.80    8.96
  -5   2  -8   78.50   19.90
   5   2   8   78.96   16.93
   5  -2   8   81.31   13.59
  -5   2  -9   23.13   12.53
   5   2   9   23.29    9.22
  -5   2 -10   70.48   19.69
   5   2  10   62.62   15.95
  -5   2 -11   49.93   17.36
   5   2  11   30.28   11.18
  -5   2 -12  237.07   36.61
   5   2  12  182.18   27.59
  -5   2 -13   43.73   16.39
   5   2  13    5.46    6.79
   5   2  14   44.79   13.85
   5   2  15   59.80   17.25
   5   2  16   -6.77    8.79
  -5   3  18   -8.51    9.36
   5   3 -17   58.16   18.44
  -5   3  17   10.01    7.46
   5   3 -16    8.84    7.90
  -5   3  16    5.12    6.93
  -5   3  15   14.45    9.62
   5   3 -15  -12.11    8.85
  -5   3  14   65.68   17.80
   5   3 -14   93.02   22.06
  -5   3  13  111.22   22.09
   5   3 -13   75.33   20.54
   5   3 -12   47.30   16.10
  -5   3  12   36.36   12.62
  -5   3  11    4.10    3.62
   5   3 -11   -4.08    6.23
   5   3 -10  142.11   25.47
  -5   3  10  136.55   22.95
  -5   3  10  135.52   18.26
   5   3  -9   15.81    8.61
  -5   3   9   37.89   10.14
   5  -3  -9   19.92    9.92
  -5   3   9   17.11    6.84
  -5   3   8   31.58    9.28
   5  -3  -8   18.76    8.57
  -5   3   8   27.67   10.91
   5   3  -8   31.88   11.88
  -5   3   7    6.19    5.08
   5  -3  -7    6.97    3.99
  -5   3   7   11.11    7.31
   5   3  -7   14.83    8.46
  -5   3   6   10.73    6.56
  -5   3   6   -2.35    5.20
   5   3  -6   -5.29    6.55
   5  -3  -6   -0.62    4.63
  -5   3   5   65.45   14.99
  -5   3   5   58.05   12.56
   5  -3  -5   35.05   11.12
   5   3  -5   64.34   16.57
  -5   3   4    8.15    5.01
  -5   3   4    1.28    2.37
   5  -3  -4    3.21    3.81
  -5   3   4    4.35    4.58
   5   3  -4   10.90    8.59
  -5   3   3   28.03   10.66
  -5   3   3   15.02    6.62
  -5   3   3   21.69    6.44
   5   3  -3   31.90   11.72
   5  -3  -3   28.08    8.77
   5  -3  -2  241.93   24.28
  -5   3   2  228.69   21.12
   5   3  -2  262.88   32.85
  -5   3   2  266.92   32.00
   5   3  -1  193.07   28.70
  -5   3   1  190.03   26.86
   5  -3  -1  165.08   19.47
  -5   3   0   10.24    6.88
   5  -3   0    9.29    5.50
   5   3   0    7.83    7.20
  -5   3  -1    1.38    6.31
   5  -3   1    4.92    5.09
   5   3   1   -7.09    9.15
  -5   3  -2  110.00   22.06
  -5   3  -2  137.17   11.87
   5   3   2  164.04   26.26
   5  -3   2  157.78   17.16
  -5   3  -3    0.42    6.31
   5   3   3   14.62    8.93
   5  -3   3    4.65    4.63
   5   3   4  335.25   37.83
  -5   3  -4  330.52   39.25
   5  -3   4  303.20   22.11
  -5   3  -5   -1.06    6.69
   5   3   5    0.79    6.67
  -5   3  -6   17.56   11.58
   5   3   6    2.23    6.82
  -5   3  -7  392.68   44.58
   5   3   7  465.42   43.54
  -5   3  -8  434.79   47.44
   5   3   8  479.80   45.01
  -5   3  -9   41.74   15.64
   5   3   9   43.56   14.42
  -5   3 -10   16.46    8.79
   5   3  10   37.37   14.01
  -5   3 -11   14.42   10.19
   5   3  11   17.06    9.87
   5   3  12   -2.50    6.00
   5   3  13   -1.36    9.26
   5   3  14  169.49   29.65
  -5   4  17  -31.60   13.81
  -5   4  16    4.77    6.44
  -5   4  15    9.32    7.91
   5   4 -15   23.84   12.06
   5   4 -14   -9.75    8.19
  -5   4  14   -8.77    8.10
   5   4 -13  123.46   25.48
  -5   4  13  106.54   22.57
   5   4 -12   23.74   12.43
  -5   4  12   34.91   11.79
   5   4 -11   55.68   16.79
  -5   4  11   41.20   13.52
  -5   4  10  264.32   31.81
  -5   4  10  304.24   27.51
   5   4 -10  298.25   37.59
  -5   4   9   28.58    8.93
  -5   4   9   32.29   12.35
   5   4  -9   23.25   10.19
  -5   4   8   12.09    6.45
  -5   4   8    9.32    7.44
   5   4  -8    5.04    8.10
  -5   4   7   55.27   13.70
  -5   4   7   50.14   13.61
   5   4  -7   38.72   13.71
  -5   4   6   -3.32    5.28
  -5   4   6    2.54    4.92
   5   4  -6    7.39    4.68
  -5   4   5  118.43   20.24
  -5   4   5  115.84   16.77
   5   4  -5  142.21   25.69
  -5   4   4   42.06   12.00
   5   4  -4   39.05   13.77
  -5   4   4   38.72    9.20
  -5   4   3  -14.38    8.27
   5   4  -3    1.06    9.56
  -5   4   3   -1.35    3.29
  -5   4   2   51.00   14.42
   5   4  -2   38.79   14.11
  -5   4   1   46.28   13.96
   5   4  -1   52.69   15.31
  -5   4   0    9.38    9.16
   5   4   0    7.73    6.43
  -5   4  -1  122.95   23.00
   5   4   1  101.19   21.51
  -5   4  -2   -2.37    5.26
   5   4   2   11.98    9.02
   5   4   3  252.56   34.32
  -5   4  -3  250.92   34.38
  -5   4  -4  126.60   24.59
   5   4   4  138.67   25.93
  -5   4  -5   96.96   22.27
   5   4   5   92.25   21.27
  -5   4  -6   44.66   15.92
   5   4   6   28.66   11.86
  -5   4  -7  -19.47   11.19
   5   4   7    0.67    5.64
  -5   4  -8  -28.86   13.31
   5   4   8   -1.55    6.29
  -5   4  -9   16.82   10.46
   5   4   9   31.35   12.79
   5   4  10   23.47   11.42
   5   4  11   96.97   23.18
  -5   5  16   22.42   12.33
  -5   5  15   -9.13    7.95
  -5   5  14   13.48    9.91
   5   5 -13   17.74    9.98
  -5   5  13    1.85    7.03
   5   5 -12  149.59   28.76
  -5   5  12  169.32   26.96
  -5   5  11  175.87   26.02
   5   5 -11  231.67   34.76
   5   5 -10  -17.73   10.45
  -5   5  10    4.03    5.01
  -5   5   9  -20.09    9.14
   5   5  -9   -2.67    6.49
   5   5  -8   34.72   13.17
  -5   5   8   24.85    8.93
  -5   5   7   13.37    6.58
   5   5  -7   28.44   12.37
  -5   5   6   -1.14    3.77
   5   5  -6    2.29    5.38
  -5   5   5    6.69    6.98
   5   5  -5    7.87    7.52
  -5   5   4   22.70    9.12
   5   5  -4   13.41    9.11
   5   5  -3  207.10   32.30
  -5   5   3  204.66   28.79
  -5   5   2   -4.23    5.84
   5   5  -2  -11.06    9.90
  -5   5   1   57.34   15.97
   5   5  -1   96.36   22.71
  -5   5   0  113.55   23.37
   5   5   0  120.81   24.70
  -5   5  -1   15.26    9.41
   5   5   1    0.73    5.95
  -5   5  -2  -16.04    9.99
   5   5   2   19.31   11.14
  -5   5  -3   12.95    9.00
   5   5   3   17.25   10.62
  -5   5  -4   19.08   10.43
   5   5   4    9.14    7.25
  -5   5  -5  173.61   30.49
   5   5   5  274.65   37.64
  -5   5  -6   21.86   13.39
   5   5   6   12.71    9.27
  -5   5  -7   27.96   13.08
   5   5   7   -0.35    9.90
   5   6  -8   79.32   22.10
   5   6  -7   -1.26    5.50
   5   6  -6  116.99   24.36
  -5   6   6   92.85   18.68
   5   6  -5   16.81   10.47
  -5   6   5    2.48    3.88
   5   6  -4   76.49   20.49
  -5   6   4   28.14   11.02
   5   6  -3    6.63    9.71
  -5   6   3    0.08    3.58
  -5   6   2    0.04    3.70
   5   6  -2    2.22    8.17
  -5   6   1  178.86   29.34
   5   6  -1  207.37   33.89
  -5   6   0   -3.18    5.03
   5   6   0   78.29   21.34
  -5   6  -1  -13.18    8.49
   5   6   1  -14.40   10.24
  -5   6  -2   33.93   13.29
  -5   6  -3    5.56    6.51
  -5   7   4   26.51   10.95
  -5   7   3  -10.51    7.22
  -5   7   2  193.36   30.40
  -5   7   1   49.92   16.24
   6   0 -15  -13.59    9.50
   6   0 -14   23.48   13.50
   6   0 -13    1.50    6.56
   6   0 -12   18.40   10.61
   6   0 -11   11.65    6.90
   6   0 -10  250.68   34.52
   6   0  -9  -12.66    8.40
   6   0  -8    3.58    7.15
   6   0  -7  -14.57    8.96
   6   0  -6  230.86   30.96
   6   0  -5   -2.32    5.22
   6   0  -4    1.47    4.41
   6   0  -3   -0.19    7.50
   6   0  -2    6.14    6.79
   6   0  -1    4.84    8.45
   6   0   0  218.93   28.82
   6   0   1    6.41    6.68
   6   0   2  137.16   23.07
   6   0   3    1.46    5.07
   6   0   4  113.05   20.97
   6   0   5   -1.35    4.82
   6   0   6  172.03   25.76
   6   0   7    2.35    4.64
   6   0   8    3.69    4.86
  -6   0  -9   20.40   12.67
   6   0   9   14.43    8.59
   6   0  10   56.14   15.58
   6  -1 -15   53.51   17.39
   6   1 -14   16.07   11.60
   6  -1 -14    2.06    5.11
   6  -1 -13   -3.16    6.03
   6   1 -13   -0.86    4.44
   6  -1 -12  141.37   26.64
   6   1 -12  126.72   25.74
   6  -1 -11   21.85   12.02
   6   1 -11   27.68   11.62
   6  -1 -10   14.14    9.87
   6   1 -10    2.74    4.06
   6  -1  -9   65.27   16.92
   6   1  -9   67.20   18.31
   6   1  -8   16.33   10.49
   6  -1  -8   34.16   12.47
   6   1  -7  113.44   22.96
   6  -1  -7  109.50   20.90
   6   1  -6   -1.49    7.00
   6  -1  -6   12.00    8.34
   6   1  -5   82.50   19.82
   6  -1  -5   66.43   16.43
   6  -1  -4  159.91   25.25
   6   1  -4  145.27   25.40
   6  -1  -3   42.07   12.75
   6   1  -3   41.88   13.85
   6  -1  -2   13.87    7.54
   6   1  -2    4.43    6.46
   6  -1  -1   96.80   18.70
   6   1  -1  142.88   24.30
   6  -1   0  148.35   22.47
   6   1   0  224.18   30.60
   6   1   1  119.58   22.45
   6  -1   1   76.04   16.47
  -6   1  -2  101.66   23.22
   6   1   2   93.23   20.34
   6  -1   2   56.06   14.07
  -6   1  -3  -15.43    9.74
   6   1   3   -5.20    8.33
   6  -1   3    2.70    5.95
  -6   1  -4   12.12    9.38
   6   1   4   11.26    9.07
   6  -1   4    8.04    5.71
  -6   1  -5    6.99    8.05
   6   1   5   13.32    8.37
   6  -1   5   19.85    8.79
  -6   1  -6  145.44   29.49
   6   1   6  133.61   24.33
   6  -1   6  102.28   18.12
  -6   1  -7    6.00    7.47
   6   1   7    9.68    7.87
   6  -1   7   24.70    9.91
  -6   1  -8  -16.63   11.30
   6   1   8    3.11    5.42
   6   1   9   11.69    6.45
   6   1  10   87.89   20.49
   6   1  11   87.02   20.39
   6   1  12  147.24   27.03
  -6   2  16   22.38   14.17
  -6   2  15   42.62   17.51
  -6   2  14   59.45   16.75
   6  -2 -14   15.46    9.46
  -6   2  13   38.52   14.01
   6  -2 -13   16.84   10.34
   6   2 -13   52.27   16.31
   6  -2 -12   11.51    8.48
   6   2 -12   -6.23    8.17
   6   2 -11  113.50   24.74
   6  -2 -11  105.81   23.33
  -6   2  10   -2.42    3.55
   6  -2 -10   10.25    7.39
   6   2 -10    5.16    8.39
  -6   2   9   -7.64    5.57
   6  -2  -9    6.57    6.80
  -6   2   8    8.56    6.47
   6   2  -8   -5.30    6.37
   6   2  -7  138.09   26.07
  -6   2   7  128.81   22.42
   6  -2  -7  141.26   23.89
  -6   2   6    5.94    5.85
   6  -2  -6   -3.53    4.64
   6  -2  -5   22.20    9.48
   6   2  -5   31.46   11.73
   6   2  -4    3.69    6.18
   6  -2  -4    1.52    4.18
   6   2  -3  384.63   41.52
  -6   2   3  345.19   39.16
   6  -2  -3  279.79   30.60
  -6   2   2  120.70   23.97
   6   2  -2  111.29   22.44
   6  -2  -2  101.00   18.43
  -6   2   1    3.62    7.67
   6   2  -1  -13.96    8.94
   6  -2  -1    3.06    4.96
  -6   2   0   72.12   18.86
   6  -2   0   29.56   10.05
   6   2   0   50.50   15.52
   6  -2   1    6.78    5.06
   6   2   1   -0.96    4.58
  -6   2  -2   -2.14    5.61
   6  -2   2   -7.47    5.16
   6   2   2    6.13    5.17
  -6   2  -3  139.93   27.41
   6  -2   3  130.87   19.73
   6   2   3  135.19   24.67
  -6   2  -4   62.72   18.68
   6   2   4   54.27   16.85
  -6   2  -5   -5.78    7.52
   6   2   5    7.89    7.32
  -6   2  -6    4.44    7.75
   6   2   6  -12.45    8.94
  -6   2  -7  110.48   25.72
   6   2   7   73.90   19.32
   6   2   8   24.91   11.50
   6   2   9    9.34    7.69
   6   2  10   44.20   15.96
   6   2  11   16.89   11.95
  -6   3  15   19.57   11.43
  -6   3  14   22.72   11.75
  -6   3  13   49.89   16.17
  -6   3  12   16.79    9.62
   6   3 -11  174.05   30.84
  -6   3  11  165.63   27.71
   6   3 -10  155.13   29.57
  -6   3  10  150.66   26.23
   6  -3 -10  143.71   25.66
   6  -3  -9   69.72   17.71
  -6   3   9   89.46   18.25
   6   3  -9   66.00   19.74
  -6   3   9   91.20   20.28
   6   3  -8   23.00   12.13
  -6   3   8   22.77    9.10
   6  -3  -8   24.87    8.85
  -6   3   8   33.91   12.90
  -6   3   7   73.37   17.96
  -6   3   7   55.53   14.67
   6   3  -7   70.08   19.55
   6  -3  -7   56.46   14.82
  -6   3   6   -6.92    6.74
  -6   3   6   -2.11    6.01
   6  -3  -6   -1.81    4.85
   6   3  -6    2.99    6.21
  -6   3   5   98.76   20.42
  -6   3   5   83.05   16.55
   6  -3  -5   52.70   14.09
   6   3  -5   84.33   20.58
  -6   3   4   19.28   11.09
   6   3  -4   25.79   11.95
   6  -3  -4   27.36    9.88
   6   3  -3   -4.08    6.05
   6  -3  -3  -17.40    7.79
  -6   3   2   60.10   17.10
   6   3  -2   77.80   20.80
   6  -3  -2   54.03   12.83
  -6   3   1   83.36   20.84
   6   3  -1  100.00   22.39
  -6   3   0  135.44   25.68
   6   3   0   95.98   22.16
  -6   3  -1   64.27   17.26
   6   3   1  113.39   23.72
  -6   3  -2   16.52   10.05
   6   3   2   -2.51    6.98
  -6   3  -3   26.33   12.46
   6   3   3    9.48    9.06
  -6   3  -4   96.69   22.57
   6   3   4   92.31   22.12
  -6   3  -5   -4.77    7.66
   6   3   5   -0.10    6.04
  -6   3  -6   -2.46    5.37
   6   3   6   -1.92    5.82
   6   3   7   29.92   12.73
   6   3   8   21.64   11.48
   6   3  10    6.49    8.83
  -6   4  14   14.35   10.44
  -6   4  13   15.49   10.50
  -6   4  12   40.64   14.17
   6   4  -8   56.75   18.42
  -6   4   7   -9.01    5.93
   6   4  -7   -9.01    9.06
  -6   4   6   24.70   10.21
   6   4  -6   28.68   14.60
  -6   4   5   38.09   13.01
   6   4  -5   42.38   14.80
  -6   4   4   34.59   12.87
   6   4  -4   33.71   13.22
  -6   4   3   13.77    9.00
   6   4  -3    9.89    6.21
  -6   4   2  140.01   25.96
   6   4  -2  156.02   28.60
  -6   4   1   62.23   17.74
   6   4  -1   25.17   12.28
  -6   4   0  -15.60    9.40
   6   4   0   -6.12    7.12
  -6   4  -1    1.93    4.07
   6   4   1   18.61    8.93
  -6   4  -2   73.89   19.84
   6   4   2   74.55   19.94
  -6   4  -3  132.34   26.97
   6   4   3  118.70   25.73
  -6   5   6    9.24    6.28
  -6   5   5   34.85   12.67
  -6   5   4   46.51   14.76
  -6   5   3   -4.26    6.37
  -6   5   2   55.70   16.67
  -6   5   1   31.48   13.12
  -6   5   0  141.72   27.42
  -6   5  -1   87.26   22.91
   7   0  -9  118.70   25.98
   7   0  -8   -0.92    4.09
   7   0  -7  174.71   30.44
   7   0  -6   -2.11    5.49
   7   0  -5    8.73    7.60
   7   0  -4  -14.20    9.58
   7   0  -3   54.29   17.07
   7   0  -2   -6.96    6.92
   7   0  -1   39.95   13.95
   7   0   0   -0.90    7.73
   7   0   1   -0.90    3.97
   7   0   2   -0.04    4.46
   7   0   3   70.07   18.94
   7   0   4   32.07   12.60
   7   0   5  177.67   28.83
   7  -1 -10  -18.12   10.85
  -7   1   9   25.27   10.90
   7  -1  -9   45.65   15.73
   7  -1  -8   50.24   16.30
  -7   1   8   88.19   20.52
   7   1  -8   84.69   22.67
  -7   1   7   -6.14    6.40
   7   1  -7   -6.84    7.78
   7  -1  -7    2.47    5.68
  -7   1   6   18.88   10.64
   7  -1  -6   24.21   11.51
   7   1  -5   65.27   18.56
  -7   1   5   29.75   12.71
   7  -1  -5   68.70   18.86
   7   1  -4   20.94   11.15
  -7   1   4   24.06   11.25
   7   1  -3   33.23   13.78
  -7   1   3   61.10   18.21
   7  -1  -3   39.55   13.39
  -7   1   2   -3.45    5.63
   7  -1  -2    8.54   11.39
   7   1  -2   13.36    7.44
   7  -1  -1   12.72    8.25
   7   1  -1   16.64   10.21
  -7   1   0   40.19   14.61
   7  -1   0   37.12   13.47
   7   1   0   28.72   11.67
   7  -1   1   25.58   11.01
   7   1   1   13.85    9.16
   7   1   2   22.76   10.28
   7   1   3   11.11    8.44
   7   1   4   39.68   14.74
   7   1   5   61.87   19.26
   7   1   6    6.42    7.84
  -7   2  12  -14.84   10.61
   7  -2 -11  -15.92    8.92
   7  -2 -10   26.40   13.27
   7  -2  -9   14.37    9.61
  -7   2   8   30.92   11.79
   7  -2  -8   72.03   18.92
  -7   2   7   -4.30    4.72
   7  -2  -7   25.89   11.95
  -7   2   6   18.10    9.81
   7  -2  -6    8.51    7.92
  -7   2   5    7.01    7.59
   7  -2  -5   22.16   11.95
   7  -2  -4   22.30   11.09
  -7   2   4   10.23    8.15
   7   2  -3    2.07    6.14
   7  -2  -3  -12.12    8.29
  -7   2   2   61.02   17.23
   7   2  -2   73.68   20.74
  -7   2   1    1.94    5.40
   7   2  -1    5.60    8.63
   7   2   0   58.11   18.42
   7   2   1   -5.66    8.36
   7  -3  -9   -5.01    6.51
  -7   3   6   24.09   10.75
  -7   3   5   12.58    8.52
  -7   3   4   68.68   18.97
  -7   3   3   76.82   20.74
  -7   3   2   18.79   11.08
   0   0   0    0.00    0.00

_computing_structure_solution     'SHELXT 2014/5 (Sheldrick, 2014)'
;
_shelx_hkl_checksum              45405
_olex2_submission_special_instructions 'No special instructions were received'
